version 3
run plain-0-20220618-00:03:47-10818
attr configname plain
attr datetime 20220618-00:03:47
attr datetimef 20220618-000347
attr experiment plain
attr inifile omnetpp.ini
attr iterationvars ""
attr iterationvarsd ""
attr iterationvarsf ""
attr measurement ""
attr network Scenario
attr processid 10818
attr repetition 0
attr replication #0
attr resultdir results
attr runnumber 0
attr seedset 0
config image-path ../../../../../Documents/inet/images:../../../../../Documents/veins/images
config *.visualizer.osgVisualizer.typename ""
config network Scenario
config sim-time-limit 60s
config debug-on-errors true
config cmdenv-express-mode true
config image-path ../../../../images
config *.node[*].numApps 1
config *.node[*].app[0].typename vanettutorials.veins_inet.VeinsInetSampleApplication
config *.node[*].app[0].interface "\"wlan0\""
config *.node[*].wlan[0].opMode "\"p\""
config *.node[*].wlan[0].radio.typename Ieee80211DimensionalRadio
config *.node[*].wlan[0].radio.bandName "\"5.9 GHz\""
config *.node[*].wlan[0].radio.channelNumber 3
config *.node[*].wlan[0].radio.transmitter.power 20mW
config *.node[*].wlan[0].radio.bandwidth "10 MHz"
config *.node[*].wlan[*].radio.antenna.mobility.typename AttachedMobility
config *.node[*].wlan[*].radio.antenna.mobility.mobilityModule "\"^.^.^.^.mobility\""
config *.node[*].wlan[*].radio.antenna.mobility.offsetX -2.5m
config *.node[*].wlan[*].radio.antenna.mobility.offsetZ 1.5m
config *.node[*].wlan[*].radio.antenna.mobility.constraintAreaMinX 0m
config *.node[*].wlan[*].radio.antenna.mobility.constraintAreaMaxX 0m
config *.node[*].wlan[*].radio.antenna.mobility.constraintAreaMinY 0m
config *.node[*].wlan[*].radio.antenna.mobility.constraintAreaMaxY 0m
config *.node[*].wlan[*].radio.antenna.mobility.constraintAreaMinZ 0m
config *.node[*].wlan[*].radio.antenna.mobility.constraintAreaMaxZ 0m
config *.node[*].ipv4.configurator.typename HostAutoConfigurator
config *.node[*].ipv4.configurator.interfaces "\"wlan0\""
config *.node[*].ipv4.configurator.mcastGroups "\"224.0.0.1\""
config *.node[*].mobility.typename VeinsInetMobility
config *.manager.updateInterval 0.1s
config *.manager.host "\"localhost\""
config *.manager.port 9999
config *.manager.autoShutdown true
config *.manager.launchConfig "xmldoc(\"ex1.launchd.xml\")"
config *.manager.moduleType "\"vanettutorials.veins_inet.VeinsInetCar\""
config *.physicalEnvironment.config "xmldoc(\"obstacles.xml\")"
config *.radioMedium.obstacleLoss.typename IdealObstacleLoss
config **.vector-recording true

par Scenario.node[7].radioIn[0].channel typename "\"ned.IdealChannel\""
par Scenario.node[7].mobility typename "\"vanettutorials.veins_inet.VeinsInetMobility\""
par Scenario.node[7].mobility subjectModule "\"^\""
par Scenario.node[7].mobility coordinateSystemModule "\"\""
par Scenario.node[7].mobility displayStringTextFormat "\"p: %p\\nv: %v\""
attr mutable ""
par Scenario.node[7].mobility updateDisplayString true
par Scenario.node[7].mobility constraintAreaMinX "-inf m"
attr unit m
par Scenario.node[7].mobility constraintAreaMinY "-inf m"
attr unit m
par Scenario.node[7].mobility constraintAreaMinZ "-inf m"
attr unit m
par Scenario.node[7].mobility constraintAreaMaxX "inf m"
attr unit m
par Scenario.node[7].mobility constraintAreaMaxY "inf m"
attr unit m
par Scenario.node[7].mobility constraintAreaMaxZ "inf m"
attr unit m
par Scenario.node[7].mobility initFromDisplayString true
par Scenario.node[7].interfaceTable typename "\"inet.networklayer.common.InterfaceTable\""
par Scenario.node[7].interfaceTable displayAddresses false
par Scenario.node[7].cb typename "\"inet.common.MessageDispatcher\""
par Scenario.node[7].cb displayStringTextFormat "\"processed %p pk (%l)\""
par Scenario.node[7].cb forwardServiceRegistration true
par Scenario.node[7].cb forwardProtocolRegistration true
par Scenario.node[7].bl typename "\"inet.common.MessageDispatcher\""
par Scenario.node[7].bl displayStringTextFormat "\"processed %p pk (%l)\""
par Scenario.node[7].bl forwardServiceRegistration true
par Scenario.node[7].bl forwardProtocolRegistration true
par Scenario.node[7].li typename "\"inet.common.MessageDispatcher\""
par Scenario.node[7].li displayStringTextFormat "\"processed %p pk (%l)\""
par Scenario.node[7].li forwardServiceRegistration true
par Scenario.node[7].li forwardProtocolRegistration true
par Scenario.node[7].lo[0].upperLayerIn.channel typename "\"ned.IdealChannel\""
par Scenario.node[7].lo[0].lo.upperLayerOut.channel typename "\"ned.IdealChannel\""
par Scenario.node[7].lo[0].lo typename "\"inet.linklayer.loopback.Loopback\""
par Scenario.node[7].lo[0].lo interfaceTableModule "\"Scenario.node[7].interfaceTable\""
par Scenario.node[7].lo[0].lo mtu 4470B
attr unit B
scalar Scenario.node[7].lo[0].lo rcvdPkFromHl:count 1
attr interpolationmode none
attr recordingmode count
attr source packetReceivedFromUpper
attr title "packets received from higher layer, count"
scalar Scenario.node[7].lo[0].lo rcvdPkFromHl:sum(packetBytes) 128
attr interpolationmode none
attr recordingmode sum(packetBytes)
attr source packetReceivedFromUpper
attr title "packets received from higher layer, sum(packetBytes)"
scalar Scenario.node[7].lo[0].lo passedUpPk:count 1
attr interpolationmode none
attr recordingmode count
attr source packetSentToUpper
attr title "packets passed to higher layer, count"
scalar Scenario.node[7].lo[0].lo passedUpPk:sum(packetBytes) 128
attr interpolationmode none
attr recordingmode sum(packetBytes)
attr source packetSentToUpper
attr title "packets passed to higher layer, sum(packetBytes)"
par Scenario.node[7].lo[0] typename "\"inet.linklayer.loopback.LoopbackInterface\""
par Scenario.node[7].lo[0] displayStringTextFormat "\"%a (%i)\\n%m\""
par Scenario.node[7].lo[0] recordPcap false
par Scenario.node[7].lo[0] numPcapRecorders 0
par Scenario.node[7].lo[0] interfaceTableModule "\"Scenario.node[7].interfaceTable\""
scalar Scenario.node[7].lo[0] packetDropInterfaceDown:count 0
attr interpolationmode none
attr recordingmode count
attr source packetDropReasonIsInterfaceDown(packetDropped)
attr title "packet drops: interface down, count"
scalar Scenario.node[7].lo[0] packetDropInterfaceDown:sum(packetBytes) 0
attr interpolationmode none
attr recordingmode sum(packetBytes)
attr source packetDropReasonIsInterfaceDown(packetDropped)
attr title "packet drops: interface down, sum(packetBytes)"
scalar Scenario.node[7].lo[0] packetDropNoCarrier:count 0
attr interpolationmode none
attr recordingmode count
attr source packetDropReasonIsNoCarrier(packetDropped)
attr title "packet drops: no carrier, count"
scalar Scenario.node[7].lo[0] packetDropNoCarrier:sum(packetBytes) 0
attr interpolationmode none
attr recordingmode sum(packetBytes)
attr source packetDropReasonIsNoCarrier(packetDropped)
attr title "packet drops: no carrier, sum(packetBytes)"
par Scenario.node[7].wlan[0].radioIn.channel typename "\"ned.IdealChannel\""
par Scenario.node[7].wlan[0].llc.upperLayerOut.channel typename "\"ned.IdealChannel\""
par Scenario.node[7].wlan[0].upperLayerIn.channel typename "\"ned.IdealChannel\""
par Scenario.node[7].wlan[0].mib typename "\"inet.linklayer.ieee80211.mib.Ieee80211Mib\""
par Scenario.node[7].wlan[0].llc typename "\"inet.linklayer.ieee80211.llc.Ieee80211LlcEpd\""
par Scenario.node[7].wlan[0].mgmt typename "\"inet.linklayer.ieee80211.mgmt.Ieee80211MgmtAdhoc\""
par Scenario.node[7].wlan[0].mgmt mibModule "\"Scenario.node[7].wlan[0].mib\""
par Scenario.node[7].wlan[0].mgmt macModule "\"Scenario.node[7].wlan[0].mac\""
par Scenario.node[7].wlan[0].mgmt interfaceTableModule "\"Scenario.node[7].interfaceTable\""
par Scenario.node[7].wlan[0].mac.dcf.channelAccess.pendingQueue typename "\"inet.linklayer.ieee80211.mac.queue.PendingQueue\""
par Scenario.node[7].wlan[0].mac.dcf.channelAccess.pendingQueue displayStringTextFormat "\"contains %p pk (%l) pushed %u\\npulled %o removed %r dropped %d\""
par Scenario.node[7].wlan[0].mac.dcf.channelAccess.pendingQueue packetCapacity 100
par Scenario.node[7].wlan[0].mac.dcf.channelAccess.pendingQueue dataCapacity -1b
attr unit b
par Scenario.node[7].wlan[0].mac.dcf.channelAccess.pendingQueue dropperClass "\"inet::queueing::PacketAtCollectionEndDropper\""
par Scenario.node[7].wlan[0].mac.dcf.channelAccess.pendingQueue comparatorClass "\"inet::ieee80211::MgmtOverDataComparator\""
par Scenario.node[7].wlan[0].mac.dcf.channelAccess.pendingQueue bufferModule "\"\""
scalar Scenario.node[7].wlan[0].mac.dcf.channelAccess.pendingQueue queueLength:last 0
attr autoWarmupFilter false
attr interpolationmode sample-hold
attr recordingmode last
attr source "warmup(atomic(constant0(packetPushEnded) + count(packetPushStarted) - count(packetPulled) - count(packetRemoved) - count(packetDropped)))"
attr title "queue length, last"
attr unit pk
scalar Scenario.node[7].wlan[0].mac.dcf.channelAccess.pendingQueue queueLength:max 1
attr autoWarmupFilter false
attr interpolationmode sample-hold
attr recordingmode max
attr source "warmup(atomic(constant0(packetPushEnded) + count(packetPushStarted) - count(packetPulled) - count(packetRemoved) - count(packetDropped)))"
attr title "queue length, max"
attr unit pk
scalar Scenario.node[7].wlan[0].mac.dcf.channelAccess.pendingQueue queueLength:timeavg 4.5971895854203e-06
attr autoWarmupFilter false
attr interpolationmode sample-hold
attr recordingmode timeavg
attr source "warmup(atomic(constant0(packetPushEnded) + count(packetPushStarted) - count(packetPulled) - count(packetRemoved) - count(packetDropped)))"
attr title "queue length, timeavg"
attr unit pk
scalar Scenario.node[7].wlan[0].mac.dcf.channelAccess.pendingQueue queueBitLength:last 0
attr autoWarmupFilter false
attr interpolationmode sample-hold
attr recordingmode last
attr source "warmup(atomic(constant0(packetPushEnded) + sum(packetLength(packetPushStarted)) - sum(packetLength(packetPulled)) - sum(packetLength(packetRemoved)) - sum(packetLength(packetDropped))))"
attr title "queue bit length, last"
attr unit b
scalar Scenario.node[7].wlan[0].mac.dcf.channelAccess.pendingQueue queueBitLength:max 1264
attr autoWarmupFilter false
attr interpolationmode sample-hold
attr recordingmode max
attr source "warmup(atomic(constant0(packetPushEnded) + sum(packetLength(packetPushStarted)) - sum(packetLength(packetPulled)) - sum(packetLength(packetRemoved)) - sum(packetLength(packetDropped))))"
attr title "queue bit length, max"
attr unit b
scalar Scenario.node[7].wlan[0].mac.dcf.channelAccess.pendingQueue queueBitLength:timeavg 0.0058108476359712
attr autoWarmupFilter false
attr interpolationmode sample-hold
attr recordingmode timeavg
attr source "warmup(atomic(constant0(packetPushEnded) + sum(packetLength(packetPushStarted)) - sum(packetLength(packetPulled)) - sum(packetLength(packetRemoved)) - sum(packetLength(packetDropped))))"
attr title "queue bit length, timeavg"
attr unit b
statistic Scenario.node[7].wlan[0].mac.dcf.channelAccess.pendingQueue queueingTime:histogram
field count 1
field mean 9.7e-05
field stddev nan
field min 9.7e-05
field max 9.7e-05
field sum 9.7e-05
field sqrsum 9.409e-09
attr interpolationmode none
attr recordingmode histogram
attr source queueingTime(packetPulled)
attr title "queueing times"
attr unit s
bin	-inf	0
bin	0	1
bin	0.01	0
bin	0.02	0
bin	0.03	0
bin	0.04	0
bin	0.05	0
bin	0.06	0
bin	0.07	0
bin	0.08	0
bin	0.09	0
bin	0.1	0
bin	0.11	0
bin	0.12	0
bin	0.13	0
bin	0.14	0
bin	0.15	0
bin	0.16	0
bin	0.17	0
bin	0.18	0
bin	0.19	0
bin	0.2	0
bin	0.21	0
bin	0.22	0
bin	0.23	0
bin	0.24	0
bin	0.25	0
bin	0.26	0
bin	0.27	0
bin	0.28	0
bin	0.29	0
bin	0.3	0
bin	0.31	0
bin	0.32	0
bin	0.33	0
bin	0.34	0
bin	0.35	0
bin	0.36	0
bin	0.37	0
bin	0.38	0
bin	0.39	0
bin	0.4	0
bin	0.41	0
bin	0.42	0
bin	0.43	0
bin	0.44	0
bin	0.45	0
bin	0.46	0
bin	0.47	0
bin	0.48	0
bin	0.49	0
bin	0.5	0
bin	0.51	0
scalar Scenario.node[7].wlan[0].mac.dcf.channelAccess.pendingQueue outgoingPackets:count 1
attr recordingmode count
attr source packetPulled
attr title "outgoing packets, count"
attr unit pk
scalar Scenario.node[7].wlan[0].mac.dcf.channelAccess.pendingQueue outgoingPacketLengths:sum 1264
attr interpolationmode none
attr recordingmode sum
attr source packetLength(packetPulled)
attr title "outgoing packet lengths, sum"
attr unit b
statistic Scenario.node[7].wlan[0].mac.dcf.channelAccess.pendingQueue outgoingPacketLengths:histogram
field count 1
field mean 1264
field stddev nan
field min 1264
field max 1264
field sum 1264
field sqrsum 1597696
attr interpolationmode none
attr recordingmode histogram
attr source packetLength(packetPulled)
attr title "outgoing packet lengths"
attr unit b
bin	-inf	0
bin	1263	0
bin	1264	1
bin	1265	0
statistic Scenario.node[7].wlan[0].mac.dcf.channelAccess.pendingQueue flowQueueingTime:histogram
field count 0
field mean -nan
field stddev nan
field min nan
field max nan
field sum 0
field sqrsum 0
attr interpolationmode none
attr recordingmode histogram
attr source queueingTime(demuxFlow(packetPulled))
attr title "flow queueing times"
attr unit s
bin	-inf	0
bin	0	0
bin	1	0
scalar Scenario.node[7].wlan[0].mac.dcf.channelAccess.pendingQueue incomingPackets:count 1
attr recordingmode count
attr source packetPushStarted
attr title "incoming packets, count"
attr unit pk
scalar Scenario.node[7].wlan[0].mac.dcf.channelAccess.pendingQueue incomingPacketLengths:sum 1264
attr interpolationmode none
attr recordingmode sum
attr source packetLength(packetPushStarted)
attr title "incoming packet lengths, sum"
attr unit b
statistic Scenario.node[7].wlan[0].mac.dcf.channelAccess.pendingQueue incomingPacketLengths:histogram
field count 1
field mean 1264
field stddev nan
field min 1264
field max 1264
field sum 1264
field sqrsum 1597696
attr interpolationmode none
attr recordingmode histogram
attr source packetLength(packetPushStarted)
attr title "incoming packet lengths"
attr unit b
bin	-inf	0
bin	1263	0
bin	1264	1
bin	1265	0
scalar Scenario.node[7].wlan[0].mac.dcf.channelAccess.pendingQueue droppedPacketsQueueOverflow:count 0
attr interpolationmode none
attr recordingmode count
attr source packetDropReasonIsQueueOverflow(packetDropped)
attr title "dropped packets: queue overflow, count"
attr unit pk
scalar Scenario.node[7].wlan[0].mac.dcf.channelAccess.pendingQueue droppedPacketLengthsQueueOverflow:sum 0
attr interpolationmode none
attr recordingmode sum
attr source packetLength(packetDropReasonIsQueueOverflow(packetDropped))
attr title "dropped packet lengths: queue overflow, sum"
attr unit b
par Scenario.node[7].wlan[0].mac.dcf.channelAccess.inProgressFrames typename "\"inet.linklayer.ieee80211.mac.queue.InProgressFrames\""
par Scenario.node[7].wlan[0].mac.dcf.channelAccess.inProgressFrames pendingQueueModule "\"^.pendingQueue\""
par Scenario.node[7].wlan[0].mac.dcf.channelAccess.inProgressFrames originatorMacDataServiceModule "\"^.^.originatorMacDataService\""
par Scenario.node[7].wlan[0].mac.dcf.channelAccess.inProgressFrames ackHandlerModule "\"^.^.ackHandler\""
statistic Scenario.node[7].wlan[0].mac.dcf.channelAccess.inProgressFrames queueingTime:histogram
field count 1
field mean 0.000152
field stddev nan
field min 0.000152
field max 0.000152
field sum 0.000152
field sqrsum 2.3104e-08
attr interpolationmode none
attr recordingmode histogram
attr source queueingTime(packetDequeued)
attr title "queueing times"
bin	-inf	0
bin	0	1
bin	0.01	0
bin	0.02	0
bin	0.03	0
bin	0.04	0
bin	0.05	0
bin	0.06	0
bin	0.07	0
bin	0.08	0
bin	0.09	0
bin	0.1	0
bin	0.11	0
bin	0.12	0
bin	0.13	0
bin	0.14	0
bin	0.15	0
bin	0.16	0
bin	0.17	0
bin	0.18	0
bin	0.19	0
bin	0.2	0
bin	0.21	0
bin	0.22	0
bin	0.23	0
bin	0.24	0
bin	0.25	0
bin	0.26	0
bin	0.27	0
bin	0.28	0
bin	0.29	0
bin	0.3	0
bin	0.31	0
bin	0.32	0
bin	0.33	0
bin	0.34	0
bin	0.35	0
bin	0.36	0
bin	0.37	0
bin	0.38	0
bin	0.39	0
bin	0.4	0
bin	0.41	0
bin	0.42	0
bin	0.43	0
bin	0.44	0
bin	0.45	0
bin	0.46	0
bin	0.47	0
bin	0.48	0
bin	0.49	0
bin	0.5	0
bin	0.51	0
scalar Scenario.node[7].wlan[0].mac.dcf.channelAccess.inProgressFrames queueLength:max 1
attr autoWarmupFilter false
attr interpolationmode sample-hold
attr recordingmode max
attr source "warmup(count(packetEnqueued) - count(packetDequeued))"
attr title "queue length, max"
scalar Scenario.node[7].wlan[0].mac.dcf.channelAccess.inProgressFrames queueLength:timeavg 4.75e-06
attr autoWarmupFilter false
attr interpolationmode sample-hold
attr recordingmode timeavg
attr source "warmup(count(packetEnqueued) - count(packetDequeued))"
attr title "queue length, timeavg"
par Scenario.node[7].wlan[0].mac.dcf.channelAccess.contention typename "\"inet.linklayer.ieee80211.mac.contention.Contention\""
par Scenario.node[7].wlan[0].mac.dcf.channelAccess.contention initialChannelBusy true
par Scenario.node[7].wlan[0].mac.dcf.channelAccess.contention backoffOptimization true
scalar Scenario.node[7].wlan[0].mac.dcf.channelAccess.contention channelAccessGranted:count 1
attr recordingmode count
attr title "channel access granted, count"
scalar Scenario.node[7].wlan[0].mac.dcf.channelAccess.contention stateChanged:count 38
attr enum IDLE,DEFER,IFS_AND_BACKOFF
attr interpolationmode none
attr recordingmode count
attr title "contention state changed, count"
attr type enum
par Scenario.node[7].wlan[0].mac.dcf.channelAccess typename "\"inet.linklayer.ieee80211.mac.channelaccess.Dcaf\""
par Scenario.node[7].wlan[0].mac.dcf.channelAccess difsn -1
par Scenario.node[7].wlan[0].mac.dcf.channelAccess cwMin -1
par Scenario.node[7].wlan[0].mac.dcf.channelAccess cwMax -1
par Scenario.node[7].wlan[0].mac.dcf.channelAccess rxModule "\"^.^.rx\""
scalar Scenario.node[7].wlan[0].mac.dcf.channelAccess channelOwnershipChanged:count 2
attr interpolationmode sample-hold
attr recordingmode count
attr title "channel ownership, count"
par Scenario.node[7].wlan[0].mac.dcf.originatorMacDataService.fragmentationPolicy typename "\"inet.linklayer.ieee80211.mac.fragmentation.BasicFragmentationPolicy\""
par Scenario.node[7].wlan[0].mac.dcf.originatorMacDataService.fragmentationPolicy fragmentationThreshold 1500B
attr unit B
par Scenario.node[7].wlan[0].mac.dcf.originatorMacDataService typename "\"inet.linklayer.ieee80211.mac.originator.OriginatorMacDataService\""
scalar Scenario.node[7].wlan[0].mac.dcf.originatorMacDataService packetAggregated:count 0
attr recordingmode count
attr title "packets aggregated, count"
scalar Scenario.node[7].wlan[0].mac.dcf.originatorMacDataService packetFragmented:count 0
attr recordingmode count
attr title "packets fragmented, count"
par Scenario.node[7].wlan[0].mac.dcf.recipientMacDataService typename "\"inet.linklayer.ieee80211.mac.recipient.RecipientMacDataService\""
scalar Scenario.node[7].wlan[0].mac.dcf.recipientMacDataService packetDeaggregated:count 0
attr recordingmode count
attr title "packets deaggregated, count"
scalar Scenario.node[7].wlan[0].mac.dcf.recipientMacDataService packetDefragmented:count 7
attr recordingmode count
attr title "packets defragmented, count"
scalar Scenario.node[7].wlan[0].mac.dcf.recipientMacDataService packetDropDuplicateDetected:count 0
attr interpolationmode none
attr recordingmode count
attr source packetDropReasonIsDuplicateDetected(packetDropped)
attr title "packet drops: duplicate detected, count"
scalar Scenario.node[7].wlan[0].mac.dcf.recipientMacDataService packetDropDuplicateDetected:sum(packetBytes) 0
attr interpolationmode none
attr recordingmode sum(packetBytes)
attr source packetDropReasonIsDuplicateDetected(packetDropped)
attr title "packet drops: duplicate detected, sum(packetBytes)"
par Scenario.node[7].wlan[0].mac.dcf.rateSelection typename "\"inet.linklayer.ieee80211.mac.rateselection.RateSelection\""
par Scenario.node[7].wlan[0].mac.dcf.rateSelection rateControlModule "\"^.rateControl\""
par Scenario.node[7].wlan[0].mac.dcf.rateSelection multicastFrameBitrate -1bps
attr unit bps
par Scenario.node[7].wlan[0].mac.dcf.rateSelection responseAckFrameBitrate -1bps
attr unit bps
par Scenario.node[7].wlan[0].mac.dcf.rateSelection responseCtsFrameBitrate -1bps
attr unit bps
par Scenario.node[7].wlan[0].mac.dcf.rateSelection dataFrameBitrate -1bps
attr unit bps
par Scenario.node[7].wlan[0].mac.dcf.rateSelection dataFrameBandwidth "nan Hz"
attr unit Hz
par Scenario.node[7].wlan[0].mac.dcf.rateSelection dataFrameNumSpatialStreams -1
par Scenario.node[7].wlan[0].mac.dcf.rateSelection mgmtFrameBitrate -1bps
attr unit bps
par Scenario.node[7].wlan[0].mac.dcf.rateSelection controlFrameBitrate -1bps
attr unit bps
par Scenario.node[7].wlan[0].mac.dcf.recoveryProcedure typename "\"inet.linklayer.ieee80211.mac.originator.NonQosRecoveryProcedure\""
par Scenario.node[7].wlan[0].mac.dcf.recoveryProcedure cwCalculatorModule "\"^.channelAccess\""
par Scenario.node[7].wlan[0].mac.dcf.recoveryProcedure rtsPolicyModule "\"^.rtsPolicy\""
par Scenario.node[7].wlan[0].mac.dcf.recoveryProcedure shortRetryLimit 7
par Scenario.node[7].wlan[0].mac.dcf.recoveryProcedure longRetryLimit 4
scalar Scenario.node[7].wlan[0].mac.dcf.recoveryProcedure retryLimitReached:count 0
attr recordingmode count
attr title "retry limit reached, count"
par Scenario.node[7].wlan[0].mac.dcf.originatorProtectionMechanism typename "\"inet.linklayer.ieee80211.mac.protectionmechanism.OriginatorProtectionMechanism\""
par Scenario.node[7].wlan[0].mac.dcf.originatorProtectionMechanism rateSelectionModule "\"^.rateSelection\""
par Scenario.node[7].wlan[0].mac.dcf.ackHandler typename "\"inet.linklayer.ieee80211.mac.originator.AckHandler\""
par Scenario.node[7].wlan[0].mac.dcf.originatorAckPolicy typename "\"inet.linklayer.ieee80211.mac.originator.OriginatorAckPolicy\""
par Scenario.node[7].wlan[0].mac.dcf.originatorAckPolicy rateSelectionModule "\"^.rateSelection\""
par Scenario.node[7].wlan[0].mac.dcf.originatorAckPolicy ackTimeout -1s
attr unit s
par Scenario.node[7].wlan[0].mac.dcf.recipientAckPolicy typename "\"inet.linklayer.ieee80211.mac.recipient.RecipientAckPolicy\""
par Scenario.node[7].wlan[0].mac.dcf.recipientAckPolicy rateSelectionModule "\"^.rateSelection\""
par Scenario.node[7].wlan[0].mac.dcf.rtsPolicy typename "\"inet.linklayer.ieee80211.mac.originator.RtsPolicy\""
par Scenario.node[7].wlan[0].mac.dcf.rtsPolicy rateSelectionModule "\"^.rateSelection\""
par Scenario.node[7].wlan[0].mac.dcf.rtsPolicy ctsTimeout -1s
attr unit s
par Scenario.node[7].wlan[0].mac.dcf.rtsPolicy rtsThreshold 2346B
attr unit B
par Scenario.node[7].wlan[0].mac.dcf.ctsPolicy typename "\"inet.linklayer.ieee80211.mac.recipient.CtsPolicy\""
par Scenario.node[7].wlan[0].mac.dcf.ctsPolicy rxModule "\"^.^.rx\""
par Scenario.node[7].wlan[0].mac.dcf.ctsPolicy rateSelectionModule "\"^.rateSelection\""
par Scenario.node[7].wlan[0].mac.dcf typename "\"inet.linklayer.ieee80211.mac.coordinationfunction.Dcf\""
par Scenario.node[7].wlan[0].mac.dcf rxModule "\"^.rx\""
par Scenario.node[7].wlan[0].mac.dcf txModule "\"^.tx\""
scalar Scenario.node[7].wlan[0].mac.dcf frameSequenceFinished:count 1
attr recordingmode count
attr title "finished frame sequences, count"
statistic Scenario.node[7].wlan[0].mac.dcf frameSequenceDuration:histogram
field count 1
field mean 0.000152
field stddev nan
field min 0.000152
field max 0.000152
field sum 0.000152
field sqrsum 2.3104e-08
attr recordingmode histogram
attr source frameSequenceDuration(frameSequenceFinished)
attr title "frame sequence durations"
bin	-inf	0
bin	0	1
bin	0.01	0
bin	0.02	0
bin	0.03	0
bin	0.04	0
bin	0.05	0
bin	0.06	0
bin	0.07	0
bin	0.08	0
bin	0.09	0
bin	0.1	0
bin	0.11	0
bin	0.12	0
bin	0.13	0
bin	0.14	0
bin	0.15	0
bin	0.16	0
bin	0.17	0
bin	0.18	0
bin	0.19	0
bin	0.2	0
bin	0.21	0
bin	0.22	0
bin	0.23	0
bin	0.24	0
bin	0.25	0
bin	0.26	0
bin	0.27	0
bin	0.28	0
bin	0.29	0
bin	0.3	0
bin	0.31	0
bin	0.32	0
bin	0.33	0
bin	0.34	0
bin	0.35	0
bin	0.36	0
bin	0.37	0
bin	0.38	0
bin	0.39	0
bin	0.4	0
bin	0.41	0
bin	0.42	0
bin	0.43	0
bin	0.44	0
bin	0.45	0
bin	0.46	0
bin	0.47	0
bin	0.48	0
bin	0.49	0
bin	0.5	0
bin	0.51	0
statistic Scenario.node[7].wlan[0].mac.dcf frameSequenceNumPackets:histogram
field count 1
field mean 1
field stddev nan
field min 1
field max 1
field sum 1
field sqrsum 1
attr recordingmode histogram
attr source frameSequenceNumPackets(frameSequenceFinished)
attr title "frame sequences: number of packets"
bin	-inf	0
bin	0	0
bin	1	1
bin	2	0
scalar Scenario.node[7].wlan[0].mac.dcf packetReceivedFromPeer:count 7
attr interpolationmode none
attr recordingmode count
attr title "packets received, count"
scalar Scenario.node[7].wlan[0].mac.dcf packetReceivedFromPeer:sum(packetBytes) 1106
attr interpolationmode none
attr recordingmode sum(packetBytes)
attr title "packets received, sum(packetBytes)"
scalar Scenario.node[7].wlan[0].mac.dcf packetReceivedFromPeerUnicast:count 0
attr interpolationmode none
attr recordingmode count
attr source ieee80211Unicast(packetReceivedFromPeer)
attr title "packets received: unicast, count"
scalar Scenario.node[7].wlan[0].mac.dcf packetReceivedFromPeerUnicast:sum(packetBytes) 0
attr interpolationmode none
attr recordingmode sum(packetBytes)
attr source ieee80211Unicast(packetReceivedFromPeer)
attr title "packets received: unicast, sum(packetBytes)"
scalar Scenario.node[7].wlan[0].mac.dcf packetReceivedFromPeerMulticast:count 7
attr interpolationmode none
attr recordingmode count
attr source ieee80211Multicast(packetReceivedFromPeer)
attr title "packets received: multicast, count"
scalar Scenario.node[7].wlan[0].mac.dcf packetReceivedFromPeerMulticast:sum(packetBytes) 1106
attr interpolationmode none
attr recordingmode sum(packetBytes)
attr source ieee80211Multicast(packetReceivedFromPeer)
attr title "packets received: multicast, sum(packetBytes)"
scalar Scenario.node[7].wlan[0].mac.dcf packetReceivedFromPeerBroadcast:count 0
attr interpolationmode none
attr recordingmode count
attr source ieee80211Broadcast(packetReceivedFromPeer)
attr title "packets received: broadcast, count"
scalar Scenario.node[7].wlan[0].mac.dcf packetReceivedFromPeerBroadcast:sum(packetBytes) 0
attr interpolationmode none
attr recordingmode sum(packetBytes)
attr source ieee80211Broadcast(packetReceivedFromPeer)
attr title "packets received: broadcast, sum(packetBytes)"
scalar Scenario.node[7].wlan[0].mac.dcf packetReceivedFromPeerWithRetry:count 0
attr interpolationmode none
attr recordingmode count
attr source ieee80211Retry(packetReceivedFromPeer)
attr title "packets received: with retry, count"
scalar Scenario.node[7].wlan[0].mac.dcf packetReceivedFromPeerWithRetry:sum(packetBytes) 0
attr interpolationmode none
attr recordingmode sum(packetBytes)
attr source ieee80211Retry(packetReceivedFromPeer)
attr title "packets received: with retry, sum(packetBytes)"
scalar Scenario.node[7].wlan[0].mac.dcf packetReceivedFromPeerWithoutRetry:count 7
attr interpolationmode none
attr recordingmode count
attr source ieee80211NotRetry(packetReceivedFromPeer)
attr title "packets received: without retry, count"
scalar Scenario.node[7].wlan[0].mac.dcf packetReceivedFromPeerWithoutRetry:sum(packetBytes) 1106
attr interpolationmode none
attr recordingmode sum(packetBytes)
attr source ieee80211NotRetry(packetReceivedFromPeer)
attr title "packets received: without retry, sum(packetBytes)"
scalar Scenario.node[7].wlan[0].mac.dcf packetSentToPeer:count 1
attr interpolationmode none
attr recordingmode count
attr title "packets sent, count"
scalar Scenario.node[7].wlan[0].mac.dcf packetSentToPeer:sum(packetBytes) 158
attr interpolationmode none
attr recordingmode sum(packetBytes)
attr title "packets sent, sum(packetBytes)"
scalar Scenario.node[7].wlan[0].mac.dcf packetSentToPeerUnicast:count 0
attr interpolationmode none
attr recordingmode count
attr source ieee80211Unicast(packetSentToPeer)
attr title "packets sent: unicast, count"
scalar Scenario.node[7].wlan[0].mac.dcf packetSentToPeerUnicast:sum(packetBytes) 0
attr interpolationmode none
attr recordingmode sum(packetBytes)
attr source ieee80211Unicast(packetSentToPeer)
attr title "packets sent: unicast, sum(packetBytes)"
scalar Scenario.node[7].wlan[0].mac.dcf packetSentToPeerMulticast:count 1
attr interpolationmode none
attr recordingmode count
attr source ieee80211Multicast(packetSentToPeer)
attr title "packets sent: multicast, count"
scalar Scenario.node[7].wlan[0].mac.dcf packetSentToPeerMulticast:sum(packetBytes) 158
attr interpolationmode none
attr recordingmode sum(packetBytes)
attr source ieee80211Multicast(packetSentToPeer)
attr title "packets sent: multicast, sum(packetBytes)"
scalar Scenario.node[7].wlan[0].mac.dcf packetSentToPeerBroadcast:count 0
attr interpolationmode none
attr recordingmode count
attr source ieee80211Broadcast(packetSentToPeer)
attr title "packets sent: broadcast , count"
scalar Scenario.node[7].wlan[0].mac.dcf packetSentToPeerBroadcast:sum(packetBytes) 0
attr interpolationmode none
attr recordingmode sum(packetBytes)
attr source ieee80211Broadcast(packetSentToPeer)
attr title "packets sent: broadcast , sum(packetBytes)"
scalar Scenario.node[7].wlan[0].mac.dcf packetSentToPeerWithRetry:count 0
attr interpolationmode none
attr recordingmode count
attr source ieee80211Retry(packetSentToPeer)
attr title "packets sent: with retry, count"
scalar Scenario.node[7].wlan[0].mac.dcf packetSentToPeerWithRetry:sum(packetBytes) 0
attr interpolationmode none
attr recordingmode sum(packetBytes)
attr source ieee80211Retry(packetSentToPeer)
attr title "packets sent: with retry, sum(packetBytes)"
scalar Scenario.node[7].wlan[0].mac.dcf packetSentToPeerWithoutRetry:count 1
attr interpolationmode none
attr recordingmode count
attr source ieee80211NotRetry(packetSentToPeer)
attr title "packets sent: without retry, count"
scalar Scenario.node[7].wlan[0].mac.dcf packetSentToPeerWithoutRetry:sum(packetBytes) 158
attr interpolationmode none
attr recordingmode sum(packetBytes)
attr source ieee80211NotRetry(packetSentToPeer)
attr title "packets sent: without retry, sum(packetBytes)"
scalar Scenario.node[7].wlan[0].mac.dcf packetDrop:count 0
attr interpolationmode none
attr recordingmode count
attr source packetDropped
attr title "packet drops, count"
scalar Scenario.node[7].wlan[0].mac.dcf packetDrop:sum(packetBytes) 0
attr interpolationmode none
attr recordingmode sum(packetBytes)
attr source packetDropped
attr title "packet drops, sum(packetBytes)"
scalar Scenario.node[7].wlan[0].mac.dcf packetDropNotAddressedToUs:count 0
attr interpolationmode none
attr recordingmode count
attr source packetDropReasonIsNotAddressedToUs(packetDropped)
attr title "packet drops: not addressed to us, count"
scalar Scenario.node[7].wlan[0].mac.dcf packetDropNotAddressedToUs:sum(packetBytes) 0
attr interpolationmode none
attr recordingmode sum(packetBytes)
attr source packetDropReasonIsNotAddressedToUs(packetDropped)
attr title "packet drops: not addressed to us, sum(packetBytes)"
scalar Scenario.node[7].wlan[0].mac.dcf packetDropQueueOverflow:count 0
attr interpolationmode none
attr recordingmode count
attr source packetDropReasonIsQueueOverflow(packetDropped)
attr title "packet drops: queue overflow, count"
scalar Scenario.node[7].wlan[0].mac.dcf packetDropQueueOverflow:sum(packetBytes) 0
attr interpolationmode none
attr recordingmode sum(packetBytes)
attr source packetDropReasonIsQueueOverflow(packetDropped)
attr title "packet drops: queue overflow, sum(packetBytes)"
scalar Scenario.node[7].wlan[0].mac.dcf packetDropRetryLimitReached:count 0
attr interpolationmode none
attr recordingmode count
attr source packetDropReasonIsRetryLimitReached(packetDropped)
attr title "packet drops: retry limit reached, count"
scalar Scenario.node[7].wlan[0].mac.dcf packetDropRetryLimitReached:sum(packetBytes) 0
attr interpolationmode none
attr recordingmode sum(packetBytes)
attr source packetDropReasonIsRetryLimitReached(packetDropped)
attr title "packet drops: retry limit reached, sum(packetBytes)"
scalar Scenario.node[7].wlan[0].mac.dcf linkBroken:count 0
attr interpolationmode none
attr recordingmode count
attr title "link breaks, count"
par Scenario.node[7].wlan[0].mac.ds typename "\"inet.linklayer.ieee80211.mac.Ds\""
par Scenario.node[7].wlan[0].mac.ds mibModule "\"Scenario.node[7].wlan[0].mib\""
par Scenario.node[7].wlan[0].mac.rx typename "\"inet.linklayer.ieee80211.mac.Rx\""
par Scenario.node[7].wlan[0].mac.tx typename "\"inet.linklayer.ieee80211.mac.Tx\""
par Scenario.node[7].wlan[0].mac.tx rxModule "\"^.rx\""
par Scenario.node[7].wlan[0].mac typename "\"inet.linklayer.ieee80211.mac.Ieee80211Mac\""
par Scenario.node[7].wlan[0].mac interfaceTableModule "\"Scenario.node[7].interfaceTable\""
par Scenario.node[7].wlan[0].mac mibModule "\"Scenario.node[7].wlan[0].mib\""
par Scenario.node[7].wlan[0].mac modeSet "\"p\""
attr enum a,b,g(erp),g(mixed),n(mixed-2.4Ghz),p,ac
par Scenario.node[7].wlan[0].mac fcsMode "\"declared\""
attr enum declared,computed
par Scenario.node[7].wlan[0].mac initialRadioMode "\"receiver\""
attr enum off,sleep,receiver,transmitter,transceiver
par Scenario.node[7].wlan[0].mac mtu 2304B
attr unit B
par Scenario.node[7].wlan[0].mac qosStation false
scalar Scenario.node[7].wlan[0].mac packetReceivedFromLower:count 7
attr interpolationmode none
attr recordingmode count
attr title "packets received from lower layer, count"
scalar Scenario.node[7].wlan[0].mac packetReceivedFromLower:sum(packetBytes) 1106
attr interpolationmode none
attr recordingmode sum(packetBytes)
attr title "packets received from lower layer, sum(packetBytes)"
scalar Scenario.node[7].wlan[0].mac packetSentToLower:count 1
attr interpolationmode none
attr recordingmode count
attr title "packets sent to lower layer, count"
scalar Scenario.node[7].wlan[0].mac packetSentToLower:sum(packetBytes) 158
attr interpolationmode none
attr recordingmode sum(packetBytes)
attr title "packets sent to lower layer, sum(packetBytes)"
scalar Scenario.node[7].wlan[0].mac packetReceivedFromUpper:count 1
attr interpolationmode none
attr recordingmode count
attr title "packets received from upper layer, count"
scalar Scenario.node[7].wlan[0].mac packetReceivedFromUpper:sum(packetBytes) 130
attr interpolationmode none
attr recordingmode sum(packetBytes)
attr title "packets received from upper layer, sum(packetBytes)"
scalar Scenario.node[7].wlan[0].mac packetSentToUpper:count 7
attr interpolationmode none
attr recordingmode count
attr title "packets sent to upper layer, count"
scalar Scenario.node[7].wlan[0].mac packetSentToUpper:sum(packetBytes) 910
attr interpolationmode none
attr recordingmode sum(packetBytes)
attr title "packets sent to upper layer, sum(packetBytes)"
scalar Scenario.node[7].wlan[0].mac packetDrop:count 0
attr interpolationmode none
attr recordingmode count
attr source packetDropped
attr title "packet drops, count"
scalar Scenario.node[7].wlan[0].mac packetDrop:sum(packetBytes) 0
attr interpolationmode none
attr recordingmode sum(packetBytes)
attr source packetDropped
attr title "packet drops, sum(packetBytes)"
scalar Scenario.node[7].wlan[0].mac packetDropIncorrectlyReceived:count 0
attr interpolationmode none
attr recordingmode count
attr source packetDropReasonIsIncorrectlyReceived(packetDropped)
attr title "packet drops: incorrectly received, count"
scalar Scenario.node[7].wlan[0].mac packetDropIncorrectlyReceived:sum(packetBytes) 0
attr interpolationmode none
attr recordingmode sum(packetBytes)
attr source packetDropReasonIsIncorrectlyReceived(packetDropped)
attr title "packet drops: incorrectly received, sum(packetBytes)"
scalar Scenario.node[7].wlan[0].mac packetDropNotAddressedToUs:count 0
attr interpolationmode none
attr recordingmode count
attr source packetDropReasonIsNotAddressedToUs(packetDropped)
attr title "packet drops: not addressed to us, count"
scalar Scenario.node[7].wlan[0].mac packetDropNotAddressedToUs:sum(packetBytes) 0
attr interpolationmode none
attr recordingmode sum(packetBytes)
attr source packetDropReasonIsNotAddressedToUs(packetDropped)
attr title "packet drops: not addressed to us, sum(packetBytes)"
scalar Scenario.node[7].wlan[0].mac packetDropQueueOverflow:count 0
attr interpolationmode none
attr recordingmode count
attr source packetDropReasonIsQueueOverflow(packetDropped)
attr title "packet drops: queue overflow, count"
scalar Scenario.node[7].wlan[0].mac packetDropQueueOverflow:sum(packetBytes) 0
attr interpolationmode none
attr recordingmode sum(packetBytes)
attr source packetDropReasonIsQueueOverflow(packetDropped)
attr title "packet drops: queue overflow, sum(packetBytes)"
scalar Scenario.node[7].wlan[0].mac packetDropRetryLimitReached:count 0
attr interpolationmode none
attr recordingmode count
attr source packetDropReasonIsRetryLimitReached(packetDropped)
attr title "packet drops: retry limit reached, count"
scalar Scenario.node[7].wlan[0].mac packetDropRetryLimitReached:sum(packetBytes) 0
attr interpolationmode none
attr recordingmode sum(packetBytes)
attr source packetDropReasonIsRetryLimitReached(packetDropped)
attr title "packet drops: retry limit reached, sum(packetBytes)"
scalar Scenario.node[7].wlan[0].mac packetDropDuplicateDetected:count 0
attr interpolationmode none
attr recordingmode count
attr source packetDropReasonIsDuplicateDetected(packetDropped)
attr title "packet drops: duplicate detected, count"
scalar Scenario.node[7].wlan[0].mac packetDropDuplicateDetected:sum(packetBytes) 0
attr interpolationmode none
attr recordingmode sum(packetBytes)
attr source packetDropReasonIsDuplicateDetected(packetDropped)
attr title "packet drops: duplicate detected, sum(packetBytes)"
scalar Scenario.node[7].wlan[0].mac packetDropOther:count 0
attr interpolationmode none
attr recordingmode count
attr source packetDropReasonIsOther(packetDropped)
attr title "packet drops: other, count"
scalar Scenario.node[7].wlan[0].mac packetDropOther:sum(packetBytes) 0
attr interpolationmode none
attr recordingmode sum(packetBytes)
attr source packetDropReasonIsOther(packetDropped)
attr title "packet drops: other, sum(packetBytes)"
scalar Scenario.node[7].wlan[0].mac linkBroken:count 0
attr interpolationmode none
attr recordingmode count
attr title "link breaks, count"
par Scenario.node[7].wlan[0].radio.antenna.mobility typename "\"inet.mobility.single.AttachedMobility\""
par Scenario.node[7].wlan[0].radio.antenna.mobility subjectModule "\"\""
par Scenario.node[7].wlan[0].radio.antenna.mobility coordinateSystemModule "\"\""
par Scenario.node[7].wlan[0].radio.antenna.mobility displayStringTextFormat "\"p: %p\\nv: %v\""
attr mutable ""
par Scenario.node[7].wlan[0].radio.antenna.mobility updateDisplayString true
par Scenario.node[7].wlan[0].radio.antenna.mobility constraintAreaMinX 0m
attr unit m
par Scenario.node[7].wlan[0].radio.antenna.mobility constraintAreaMinY 0m
attr unit m
par Scenario.node[7].wlan[0].radio.antenna.mobility constraintAreaMinZ 0m
attr unit m
par Scenario.node[7].wlan[0].radio.antenna.mobility constraintAreaMaxX 0m
attr unit m
par Scenario.node[7].wlan[0].radio.antenna.mobility constraintAreaMaxY 0m
attr unit m
par Scenario.node[7].wlan[0].radio.antenna.mobility constraintAreaMaxZ 0m
attr unit m
par Scenario.node[7].wlan[0].radio.antenna.mobility mobilityModule "\"^.^.^.^.mobility\""
par Scenario.node[7].wlan[0].radio.antenna.mobility offsetX -2.5m
attr unit m
par Scenario.node[7].wlan[0].radio.antenna.mobility offsetY 0m
attr unit m
par Scenario.node[7].wlan[0].radio.antenna.mobility offsetZ 1.5m
attr unit m
par Scenario.node[7].wlan[0].radio.antenna.mobility offsetHeading 0deg
attr unit deg
par Scenario.node[7].wlan[0].radio.antenna.mobility offsetElevation 0deg
attr unit deg
par Scenario.node[7].wlan[0].radio.antenna.mobility offsetBank 0deg
attr unit deg
par Scenario.node[7].wlan[0].radio.antenna typename "\"inet.physicallayer.wireless.common.antenna.IsotropicAntenna\""
par Scenario.node[7].wlan[0].radio.antenna mobilityModule "\"^.^.^.mobility\""
par Scenario.node[7].wlan[0].radio.antenna numAntennas 1
par Scenario.node[7].wlan[0].radio.transmitter typename "\"inet.physicallayer.wireless.ieee80211.packetlevel.Ieee80211DimensionalTransmitter\""
par Scenario.node[7].wlan[0].radio.transmitter preambleDuration -1s
attr unit s
par Scenario.node[7].wlan[0].radio.transmitter headerLength 192b
attr unit b
par Scenario.node[7].wlan[0].radio.transmitter bitrate -1bps
attr unit bps
par Scenario.node[7].wlan[0].radio.transmitter power 0.02W
attr unit W
par Scenario.node[7].wlan[0].radio.transmitter centerFrequency 2.412e+09Hz
attr unit Hz
par Scenario.node[7].wlan[0].radio.transmitter bandwidth 1e+07Hz
attr unit Hz
par Scenario.node[7].wlan[0].radio.transmitter modulation "\"BPSK\""
par Scenario.node[7].wlan[0].radio.transmitter gainFunctionCacheLimit 0
par Scenario.node[7].wlan[0].radio.transmitter timeGains "\"left s 0dB either e 0dB right\""
par Scenario.node[7].wlan[0].radio.transmitter timeGainsNormalization "\"\""
attr enum ,maximum,integral
par Scenario.node[7].wlan[0].radio.transmitter frequencyGains "\"left s 0dB either e 0dB right\""
par Scenario.node[7].wlan[0].radio.transmitter frequencyGainsNormalization "\"integral\""
attr enum ,maximum,integral
par Scenario.node[7].wlan[0].radio.transmitter opMode "\"p\""
attr enum a,b,g(erp),g(mixed),n(mixed-2.4Ghz),p,ac
par Scenario.node[7].wlan[0].radio.transmitter bandName "\"5.9 GHz\""
attr enum "2.4 GHz,5 GHz,5 GHz (20 MHz),5 GHz (40 MHz),5 GHz (80 MHz),5 GHz (160 MHz),5.9 GHz"
par Scenario.node[7].wlan[0].radio.transmitter channelNumber 3
par Scenario.node[7].wlan[0].radio.receiver.errorModel typename "\"inet.physicallayer.wireless.ieee80211.packetlevel.errormodel.Ieee80211NistErrorModel\""
par Scenario.node[7].wlan[0].radio.receiver.errorModel corruptionMode "\"packet\""
attr enum packet,chunk,byte,bit
par Scenario.node[7].wlan[0].radio.receiver.errorModel snirMode "\"min\""
attr unit min,mean
par Scenario.node[7].wlan[0].radio.receiver.errorModel snirOffset 0dB
attr unit dB
par Scenario.node[7].wlan[0].radio.receiver typename "\"inet.physicallayer.wireless.ieee80211.packetlevel.Ieee80211DimensionalReceiver\""
par Scenario.node[7].wlan[0].radio.receiver snirThreshold 4dB
attr unit dB
par Scenario.node[7].wlan[0].radio.receiver snirThresholdMode "\"min\""
attr unit min,mean
par Scenario.node[7].wlan[0].radio.receiver energyDetection -85dBm
attr unit dBm
par Scenario.node[7].wlan[0].radio.receiver sensitivity -85dBm
attr unit dBm
par Scenario.node[7].wlan[0].radio.receiver centerFrequency 2.412e+09Hz
attr unit Hz
par Scenario.node[7].wlan[0].radio.receiver bandwidth 2.2e+07Hz
attr unit Hz
par Scenario.node[7].wlan[0].radio.receiver modulation "\"BPSK\""
par Scenario.node[7].wlan[0].radio.receiver opMode "\"p\""
attr enum a,b,g(erp),g(mixed),n(mixed-2.4Ghz),p,ac
par Scenario.node[7].wlan[0].radio.receiver bandName "\"5.9 GHz\""
attr enum "2.4 GHz,5 GHz,5 GHz (20 MHz),5 GHz (40 MHz),5 GHz (80 MHz),5 GHz (160 MHz),5.9 GHz"
par Scenario.node[7].wlan[0].radio.receiver channelNumber 3
par Scenario.node[7].wlan[0].radio typename "\"inet.physicallayer.wireless.ieee80211.packetlevel.Ieee80211DimensionalRadio\""
par Scenario.node[7].wlan[0].radio radioMediumModule "\"radioMedium\""
par Scenario.node[7].wlan[0].radio energySourceModule "\"\""
par Scenario.node[7].wlan[0].radio initialRadioMode "\"off\""
attr enum off,sleep,receiver,transmitter,transceiver
par Scenario.node[7].wlan[0].radio switchingTimes "\"ms 0 0 0 0 0 0 0 0 0 0 0 0 0 0 0 0 0 0 0 0 0 0 0 0 0\""
par Scenario.node[7].wlan[0].radio sendRawBytes false
par Scenario.node[7].wlan[0].radio separateTransmissionParts false
par Scenario.node[7].wlan[0].radio separateReceptionParts false
par Scenario.node[7].wlan[0].radio displayCommunicationRange false
par Scenario.node[7].wlan[0].radio displayInterferenceRange false
par Scenario.node[7].wlan[0].radio centerFrequency 2.412e+09Hz
attr unit Hz
par Scenario.node[7].wlan[0].radio bandwidth 1e+07Hz
attr unit Hz
par Scenario.node[7].wlan[0].radio signalAnalogRepresentation "\"scalar\""
attr enum scalar,dimensional
par Scenario.node[7].wlan[0].radio opMode "\"p\""
attr enum a,b,g(erp),g(mixed),n(mixed-2.4Ghz),p,ac
par Scenario.node[7].wlan[0].radio bandName "\"5.9 GHz\""
attr enum "2.4 GHz,5 GHz,5 GHz (20 MHz),5 GHz (40 MHz),5 GHz (80 MHz),5 GHz (160 MHz),5.9 GHz"
par Scenario.node[7].wlan[0].radio channelNumber 3
par Scenario.node[7].wlan[0].radio crcMode "\"declared\""
attr enum declared,computed
statistic Scenario.node[7].wlan[0].radio radioChannel:histogram
field count 1
field mean 3
field stddev nan
field min 3
field max 3
field sum 3
field sqrsum 9
attr interpolationmode sample-hold
attr recordingmode histogram
attr source radioChannelChanged
attr title "Radio channel"
bin	-inf	0
bin	2	0
bin	3	1
bin	4	0
scalar Scenario.node[7].wlan[0].radio radioMode:count 5
attr interpolationmode sample-hold
attr recordingmode count
attr source radioModeChanged
attr title "Radio mode, count"
scalar Scenario.node[7].wlan[0].radio receptionState:count 19
attr interpolationmode sample-hold
attr recordingmode count
attr source receptionStateChanged
attr title "Radio reception state, count"
scalar Scenario.node[7].wlan[0].radio transmissionState:count 4
attr interpolationmode sample-hold
attr recordingmode count
attr source transmissionStateChanged
attr title "Radio transmission state, count"
statistic Scenario.node[7].wlan[0].radio minSnir:histogram
field count 7
field mean 18954.333548811
field stddev 39567.707890442
field min 17.65075204918
field max 108180.65622177
field sum 132680.33484168
field sqrsum 11908488368.177
attr recordingmode histogram
attr source minimumSnir(packetSentToUpper)
attr title "Min SNIR"
bin	-inf	0
bin	0	3
bin	2000	1
bin	4000	0
bin	6000	1
bin	8000	0
bin	10000	0
bin	12000	1
bin	14000	0
bin	16000	0
bin	18000	0
bin	20000	0
bin	22000	0
bin	24000	0
bin	26000	0
bin	28000	0
bin	30000	0
bin	32000	0
bin	34000	0
bin	36000	0
bin	38000	0
bin	40000	0
bin	42000	0
bin	44000	0
bin	46000	0
bin	48000	0
bin	50000	0
bin	52000	0
bin	54000	0
bin	56000	0
bin	58000	0
bin	60000	0
bin	62000	0
bin	64000	0
bin	66000	0
bin	68000	0
bin	70000	0
bin	72000	0
bin	74000	0
bin	76000	0
bin	78000	0
bin	80000	0
bin	82000	0
bin	84000	0
bin	86000	0
bin	88000	0
bin	90000	0
bin	92000	0
bin	94000	0
bin	96000	0
bin	98000	0
bin	100000	0
bin	102000	0
bin	104000	0
bin	106000	0
bin	108000	1
bin	110000	0
bin	112000	0
bin	114000	0
bin	116000	0
bin	118000	0
bin	120000	0
bin	122000	0
bin	124000	0
bin	126000	0
bin	128000	0
bin	130000	0
bin	132000	0
bin	134000	0
bin	136000	0
statistic Scenario.node[7].wlan[0].radio packetErrorRate:histogram
field count 7
field mean 0.037447758241897
field stddev 0.09907745546493
field min 0
field max 0.26213430769328
field sum 0.26213430769328
field sqrsum 0.068714395269836
attr recordingmode histogram
attr source packetErrorRate(packetSentToUpper)
attr title "Packet error rate"
bin	-inf	0
bin	0	6
bin	0.005	0
bin	0.01	0
bin	0.015	0
bin	0.02	0
bin	0.025	0
bin	0.03	0
bin	0.035	0
bin	0.04	0
bin	0.045	0
bin	0.05	0
bin	0.055	0
bin	0.06	0
bin	0.065	0
bin	0.07	0
bin	0.075	0
bin	0.08	0
bin	0.085	0
bin	0.09	0
bin	0.095	0
bin	0.1	0
bin	0.105	0
bin	0.11	0
bin	0.115	0
bin	0.12	0
bin	0.125	0
bin	0.13	0
bin	0.135	0
bin	0.14	0
bin	0.145	0
bin	0.15	0
bin	0.155	0
bin	0.16	0
bin	0.165	0
bin	0.17	0
bin	0.175	0
bin	0.18	0
bin	0.185	0
bin	0.19	0
bin	0.195	0
bin	0.2	0
bin	0.205	0
bin	0.21	0
bin	0.215	0
bin	0.22	0
bin	0.225	0
bin	0.23	0
bin	0.235	0
bin	0.24	0
bin	0.245	0
bin	0.25	0
bin	0.255	0
bin	0.26	1
bin	0.265	0
bin	0.27	0
bin	0.275	0
bin	0.28	0
bin	0.285	0
bin	0.29	0
bin	0.295	0
bin	0.3	0
bin	0.305	0
bin	0.31	0
bin	0.315	0
bin	0.32	0
bin	0.325	0
bin	0.33	0
statistic Scenario.node[7].wlan[0].radio bitErrorRate:histogram
field count 0
field mean -nan
field stddev nan
field min nan
field max nan
field sum 0
field sqrsum 0
attr recordingmode histogram
attr source bitErrorRate(packetSentToUpper)
attr title "Bit error rate"
bin	-inf	0
bin	0	0
bin	1	0
statistic Scenario.node[7].wlan[0].radio symbolErrorRate:histogram
field count 0
field mean -nan
field stddev nan
field min nan
field max nan
field sum 0
field sqrsum 0
attr recordingmode histogram
attr source symbolErrorRate(packetSentToUpper)
attr title "Symbol error rate"
bin	-inf	0
bin	0	0
bin	1	0
par Scenario.node[7].wlan[0] typename "\"inet.linklayer.ieee80211.Ieee80211Interface\""
par Scenario.node[7].wlan[0] displayStringTextFormat "\"%a (%i)\\n%m\""
par Scenario.node[7].wlan[0] recordPcap false
par Scenario.node[7].wlan[0] numPcapRecorders 0
par Scenario.node[7].wlan[0] interfaceTableModule "\"Scenario.node[7].interfaceTable\""
par Scenario.node[7].wlan[0] energySourceModule "\"\""
par Scenario.node[7].wlan[0] opMode "\"p\""
attr enum a,b,g(erp),g(mixed),n(mixed-2.4Ghz),p,ac
par Scenario.node[7].wlan[0] address "\"0A-AA-00-00-00-08\""
attr mutable ""
par Scenario.node[7].wlan[0] protocol "\"\""
par Scenario.node[7].wlan[0] bitrate -1bps
attr unit bps
scalar Scenario.node[7].wlan[0] packetDropInterfaceDown:count 0
attr interpolationmode none
attr recordingmode count
attr source packetDropReasonIsInterfaceDown(packetDropped)
attr title "packet drops: interface down, count"
scalar Scenario.node[7].wlan[0] packetDropInterfaceDown:sum(packetBytes) 0
attr interpolationmode none
attr recordingmode sum(packetBytes)
attr source packetDropReasonIsInterfaceDown(packetDropped)
attr title "packet drops: interface down, sum(packetBytes)"
scalar Scenario.node[7].wlan[0] packetDropNoCarrier:count 0
attr interpolationmode none
attr recordingmode count
attr source packetDropReasonIsNoCarrier(packetDropped)
attr title "packet drops: no carrier, count"
scalar Scenario.node[7].wlan[0] packetDropNoCarrier:sum(packetBytes) 0
attr interpolationmode none
attr recordingmode sum(packetBytes)
attr source packetDropReasonIsNoCarrier(packetDropped)
attr title "packet drops: no carrier, sum(packetBytes)"
par Scenario.node[7].ipv4.transportIn.channel typename "\"ned.IdealChannel\""
par Scenario.node[7].ipv4.up.out[0].channel typename "\"ned.IdealChannel\""
par Scenario.node[7].ipv4.lp.out[2].channel typename "\"ned.IdealChannel\""
par Scenario.node[7].ipv4.ifIn.channel typename "\"ned.IdealChannel\""
par Scenario.node[7].ipv4.configurator typename "\"inet.networklayer.configurator.ipv4.HostAutoConfigurator\""
par Scenario.node[7].ipv4.configurator interfaceTableModule "\"Scenario.node[7].interfaceTable\""
par Scenario.node[7].ipv4.configurator interfaces "\"wlan0\""
par Scenario.node[7].ipv4.configurator addressBase "\"10.0.0.0\""
par Scenario.node[7].ipv4.configurator netmask "\"255.0.0.0\""
par Scenario.node[7].ipv4.configurator mcastGroups "\"224.0.0.1\""
par Scenario.node[7].ipv4.routingTable typename "\"inet.networklayer.ipv4.Ipv4RoutingTable\""
par Scenario.node[7].ipv4.routingTable interfaceTableModule "\"Scenario.node[7].interfaceTable\""
par Scenario.node[7].ipv4.routingTable routerId "\"auto\""
par Scenario.node[7].ipv4.routingTable netmaskRoutes "\"*\""
par Scenario.node[7].ipv4.routingTable forwarding true
par Scenario.node[7].ipv4.routingTable multicastForwarding false
par Scenario.node[7].ipv4.routingTable useAdminDist false
par Scenario.node[7].ipv4.routingTable routingFile "\"\""
par Scenario.node[7].ipv4.natTable typename "\"inet.networklayer.ipv4.Ipv4NatTable\""
par Scenario.node[7].ipv4.natTable networkProtocolModule "\"^.ip\""
par Scenario.node[7].ipv4.natTable config "<config/> at content:1"
par Scenario.node[7].ipv4.up typename "\"inet.common.MessageDispatcher\""
par Scenario.node[7].ipv4.up displayStringTextFormat "\"processed %p pk (%l)\""
par Scenario.node[7].ipv4.up forwardServiceRegistration true
par Scenario.node[7].ipv4.up forwardProtocolRegistration true
par Scenario.node[7].ipv4.igmp typename "\"inet.networklayer.ipv4.Igmpv2\""
par Scenario.node[7].ipv4.igmp interfaceTableModule "\"Scenario.node[7].interfaceTable\""
par Scenario.node[7].ipv4.igmp routingTableModule "\"Scenario.node[7].ipv4.routingTable\""
par Scenario.node[7].ipv4.igmp crcMode "\"declared\""
attr enum declared,computed
par Scenario.node[7].ipv4.igmp enabled true
par Scenario.node[7].ipv4.igmp robustnessVariable 2
par Scenario.node[7].ipv4.igmp queryInterval 125s
attr unit s
par Scenario.node[7].ipv4.igmp queryResponseInterval 10s
attr unit s
par Scenario.node[7].ipv4.igmp groupMembershipInterval 260s
attr unit s
par Scenario.node[7].ipv4.igmp otherQuerierPresentInterval 255s
attr unit s
par Scenario.node[7].ipv4.igmp startupQueryInterval 31.25s
attr unit s
par Scenario.node[7].ipv4.igmp startupQueryCount 2
par Scenario.node[7].ipv4.igmp lastMemberQueryInterval 1s
attr unit s
par Scenario.node[7].ipv4.igmp lastMemberQueryCount 2
par Scenario.node[7].ipv4.igmp unsolicitedReportInterval 10s
attr unit s
par Scenario.node[7].ipv4.icmp typename "\"inet.networklayer.ipv4.Icmp\""
par Scenario.node[7].ipv4.icmp interfaceTableModule "\"Scenario.node[7].interfaceTable\""
par Scenario.node[7].ipv4.icmp routingTableModule "\"Scenario.node[7].ipv4.routingTable\""
par Scenario.node[7].ipv4.icmp crcMode "\"declared\""
attr enum declared,computed
attr mutable ""
par Scenario.node[7].ipv4.icmp quoteLength 8B
attr mutable ""
attr unit B
par Scenario.node[7].ipv4.mp typename "\"inet.common.MessageDispatcher\""
par Scenario.node[7].ipv4.mp displayStringTextFormat "\"processed %p pk (%l)\""
par Scenario.node[7].ipv4.mp forwardServiceRegistration true
par Scenario.node[7].ipv4.mp forwardProtocolRegistration true
par Scenario.node[7].ipv4.ip typename "\"inet.networklayer.ipv4.Ipv4\""
par Scenario.node[7].ipv4.ip interfaceTableModule "\"Scenario.node[7].interfaceTable\""
par Scenario.node[7].ipv4.ip routingTableModule "\"Scenario.node[7].ipv4.routingTable\""
par Scenario.node[7].ipv4.ip arpModule "\"Scenario.node[7].ipv4.arp\""
par Scenario.node[7].ipv4.ip icmpModule "\"Scenario.node[7].ipv4.icmp\""
par Scenario.node[7].ipv4.ip crcMode "\"declared\""
attr enum declared,computed
par Scenario.node[7].ipv4.ip timeToLive 32
par Scenario.node[7].ipv4.ip multicastTimeToLive 32
par Scenario.node[7].ipv4.ip fragmentTimeout 60s
attr unit s
par Scenario.node[7].ipv4.ip limitedBroadcast false
par Scenario.node[7].ipv4.ip directBroadcastInterfaces "\"\""
scalar Scenario.node[7].ipv4.ip packetDropAddressResolutionFailed:count 0
attr interpolationmode none
attr recordingmode count
attr source packetDropReasonIsAddressResolutionFailed(packetDropped)
attr title "packet drop: address resolution failed, count"
scalar Scenario.node[7].ipv4.ip packetDropAddressResolutionFailed:sum(packetBytes) 0
attr interpolationmode none
attr recordingmode sum(packetBytes)
attr source packetDropReasonIsAddressResolutionFailed(packetDropped)
attr title "packet drop: address resolution failed, sum(packetBytes)"
scalar Scenario.node[7].ipv4.ip packetDropHopLimitReached:count 0
attr interpolationmode none
attr recordingmode count
attr source packetDropReasonIsHopLimitReached(packetDropped)
attr title "packet drop: hop limit reached, count"
scalar Scenario.node[7].ipv4.ip packetDropHopLimitReached:sum(packetBytes) 0
attr interpolationmode none
attr recordingmode sum(packetBytes)
attr source packetDropReasonIsHopLimitReached(packetDropped)
attr title "packet drop: hop limit reached, sum(packetBytes)"
scalar Scenario.node[7].ipv4.ip packetDropForwardingDisabled:count 0
attr interpolationmode none
attr recordingmode count
attr source packetDropReasonIsForwardingDisabled(packetDropped)
attr title "packet drop: forwarding disabled, count"
scalar Scenario.node[7].ipv4.ip packetDropForwardingDisabled:sum(packetBytes) 0
attr interpolationmode none
attr recordingmode sum(packetBytes)
attr source packetDropReasonIsForwardingDisabled(packetDropped)
attr title "packet drop: forwarding disabled, sum(packetBytes)"
scalar Scenario.node[7].ipv4.ip packetDropNoInterfaceFound:count 0
attr interpolationmode none
attr recordingmode count
attr source packetDropReasonIsNoInterfaceFound(packetDropped)
attr title "packet drop: no interface found, count"
scalar Scenario.node[7].ipv4.ip packetDropNoInterfaceFound:sum(packetBytes) 0
attr interpolationmode none
attr recordingmode sum(packetBytes)
attr source packetDropReasonIsNoInterfaceFound(packetDropped)
attr title "packet drop: no interface found, sum(packetBytes)"
scalar Scenario.node[7].ipv4.ip packetDropNoRouteFound:count 0
attr interpolationmode none
attr recordingmode count
attr source packetDropReasonIsNoRouteFound(packetDropped)
attr title "packet drop: no route found, count"
scalar Scenario.node[7].ipv4.ip packetDropNoRouteFound:sum(packetBytes) 0
attr interpolationmode none
attr recordingmode sum(packetBytes)
attr source packetDropReasonIsNoRouteFound(packetDropped)
attr title "packet drop: no route found, sum(packetBytes)"
scalar Scenario.node[7].ipv4.ip packetDropUndefined:count 0
attr interpolationmode none
attr recordingmode count
attr source packetDropReasonIsUndefined(packetDropped)
attr title "packet drop: undefined, count"
scalar Scenario.node[7].ipv4.ip packetDropUndefined:sum(packetBytes) 0
attr interpolationmode none
attr recordingmode sum(packetBytes)
attr source packetDropReasonIsUndefined(packetDropped)
attr title "packet drop: undefined, sum(packetBytes)"
par Scenario.node[7].ipv4.arp typename "\"inet.networklayer.arp.ipv4.Arp\""
par Scenario.node[7].ipv4.arp interfaceTableModule "\"Scenario.node[7].interfaceTable\""
par Scenario.node[7].ipv4.arp routingTableModule "\"Scenario.node[7].ipv4.routingTable\""
par Scenario.node[7].ipv4.arp retryTimeout 1s
attr unit s
par Scenario.node[7].ipv4.arp retryCount 3
par Scenario.node[7].ipv4.arp cacheTimeout 120s
attr unit s
par Scenario.node[7].ipv4.arp proxyArpInterfaces "\"\""
scalar Scenario.node[7].ipv4.arp arpResolutionFailed:count 0
attr recordingmode count
attr title "ARP failed resolutions, count"
scalar Scenario.node[7].ipv4.arp arpResolutionCompleted:count 0
attr recordingmode count
attr title "ARP completed resolutions, count"
scalar Scenario.node[7].ipv4.arp arpResolutionInitiated:count 0
attr recordingmode count
attr title "ARP initiated resolutions, count"
scalar Scenario.node[7].ipv4.arp arpReplySent:count 0
attr recordingmode count
attr source arpReplySent
attr title "ARP replies sent, count"
scalar Scenario.node[7].ipv4.arp arpReplySent:sum(packetBytes) 0
attr recordingmode sum(packetBytes)
attr source arpReplySent
attr title "ARP replies sent, sum(packetBytes)"
scalar Scenario.node[7].ipv4.arp arpRequestSent:count 0
attr recordingmode count
attr source arpRequestSent
attr title "ARP request sent, count"
scalar Scenario.node[7].ipv4.arp arpRequestSent:sum(packetBytes) 0
attr recordingmode sum(packetBytes)
attr source arpRequestSent
attr title "ARP request sent, sum(packetBytes)"
par Scenario.node[7].ipv4.lp typename "\"inet.common.MessageDispatcher\""
par Scenario.node[7].ipv4.lp displayStringTextFormat "\"processed %p pk (%l)\""
par Scenario.node[7].ipv4.lp forwardServiceRegistration true
par Scenario.node[7].ipv4.lp forwardProtocolRegistration true
par Scenario.node[7].ipv4 typename "\"inet.networklayer.ipv4.Ipv4NetworkLayer\""
par Scenario.node[7].ipv4 forwarding true
par Scenario.node[7].ipv4 multicastForwarding false
par Scenario.node[7].ipv4 interfaceTableModule "\"Scenario.node[7].interfaceTable\""
par Scenario.node[7].ipv4 displayStringTextFormat "\"%i\""
par Scenario.node[7].nl typename "\"inet.common.MessageDispatcher\""
par Scenario.node[7].nl displayStringTextFormat "\"processed %p pk (%l)\""
par Scenario.node[7].nl forwardServiceRegistration true
par Scenario.node[7].nl forwardProtocolRegistration true
par Scenario.node[7].udp typename "\"inet.transportlayer.udp.Udp\""
par Scenario.node[7].udp interfaceTableModule "\"Scenario.node[7].interfaceTable\""
par Scenario.node[7].udp icmpModule "\"^.ipv4.icmp\""
par Scenario.node[7].udp icmpv6Module "\"^.ipv6.icmpv6\""
par Scenario.node[7].udp crcMode "\"declared\""
attr enum disabled,declared,computed
par Scenario.node[7].udp defaultMulticastLoop true
scalar Scenario.node[7].udp packetReceived:count 8
attr interpolationmode none
attr recordingmode count
attr source packetReceived
attr title "packets received, count"
scalar Scenario.node[7].udp packetReceived:sum(packetBytes) 864
attr interpolationmode none
attr recordingmode sum(packetBytes)
attr source packetReceived
attr title "packets received, sum(packetBytes)"
scalar Scenario.node[7].udp packetSent:count 1
attr interpolationmode none
attr recordingmode count
attr source packetSent
attr title "packets sent, count"
scalar Scenario.node[7].udp packetSent:sum(packetBytes) 108
attr interpolationmode none
attr recordingmode sum(packetBytes)
attr source packetSent
attr title "packets sent, sum(packetBytes)"
scalar Scenario.node[7].udp passedUpPk:count 8
attr interpolationmode none
attr recordingmode count
attr source packetSentToUpper
attr title "packets passed up, count"
scalar Scenario.node[7].udp droppedPkWrongPort:count 0
attr interpolationmode none
attr recordingmode count
attr source packetDropReasonIsNoPortFound(packetDropped)
attr title "packets dropped (wrong port), count"
scalar Scenario.node[7].udp droppedPkBadChecksum:count 0
attr interpolationmode none
attr recordingmode count
attr source packetDropReasonIsIncorrectlyReceived(packetDropped)
attr title "packets dropped (checksum error), count"
par Scenario.node[7].tcp typename "\"inet.transportlayer.tcp.Tcp\""
par Scenario.node[7].tcp crcMode "\"declared\""
attr enum declared,computed
par Scenario.node[7].tcp advertisedWindow 7504
par Scenario.node[7].tcp delayedAcksEnabled false
par Scenario.node[7].tcp nagleEnabled true
par Scenario.node[7].tcp limitedTransmitEnabled false
par Scenario.node[7].tcp increasedIWEnabled false
par Scenario.node[7].tcp sackSupport false
par Scenario.node[7].tcp windowScalingSupport false
par Scenario.node[7].tcp windowScalingFactor -1
par Scenario.node[7].tcp timestampSupport false
par Scenario.node[7].tcp mss 536
par Scenario.node[7].tcp msl 120s
attr unit s
par Scenario.node[7].tcp tcpAlgorithmClass "\"TcpReno\""
attr enum TcpVegas,TcpWestwood,TcpNewReno,TcpReno,TcpTahoe,TcpNoCongestionControl
par Scenario.node[7].tcp useDataNotification false
par Scenario.node[7].tcp dupthresh 3
par Scenario.node[7].tcp initialSsthresh 4294967295
par Scenario.node[7].tcp stopOperationExtraTime 0s
attr unit s
par Scenario.node[7].tcp stopOperationTimeout 2s
attr unit s
par Scenario.node[7].tcp ecnWillingness false
par Scenario.node[7].tcp dctcpGamma 0.0625
par Scenario.node[7].tn typename "\"inet.common.MessageDispatcher\""
par Scenario.node[7].tn displayStringTextFormat "\"processed %p pk (%l)\""
par Scenario.node[7].tn forwardServiceRegistration true
par Scenario.node[7].tn forwardProtocolRegistration true
par Scenario.node[7].app[0] typename "\"vanettutorials.veins_inet.VeinsInetSampleApplication\""
par Scenario.node[7].app[0] interfaceTableModule "\"Scenario.node[7].interfaceTable\""
par Scenario.node[7].app[0] interface "\"wlan0\""
scalar Scenario.node[7].app[0] packetReceived:count 8
attr interpolationmode none
attr recordingmode count
attr source packetReceived
attr title "packets received, count"
scalar Scenario.node[7].app[0] packetReceived:sum(packetBytes) 800
attr interpolationmode none
attr recordingmode sum(packetBytes)
attr source packetReceived
attr title "packets received, sum(packetBytes)"
statistic Scenario.node[7].app[0] rcvdPkLifetime:stats
field count 8
field mean 0.001358983524125
field stddev 0.00094503663614995
field min 0.000152321838
field max 0.002568315285
field sum 0.010871868193
field sqrsum 2.1026349456405e-05
attr interpolationmode none
attr recordingmode stats
attr source dataAge(packetReceived)
attr title "received packet lifetime"
attr unit s
scalar Scenario.node[7].app[0] packetSent:count 1
attr interpolationmode none
attr recordingmode count
attr source packetSent
attr title "packets sent, count"
scalar Scenario.node[7].app[0] packetSent:sum(packetBytes) 100
attr interpolationmode none
attr recordingmode sum(packetBytes)
attr source packetSent
attr title "packets sent, sum(packetBytes)"
par Scenario.node[7].at typename "\"inet.common.MessageDispatcher\""
par Scenario.node[7].at displayStringTextFormat "\"processed %p pk (%l)\""
par Scenario.node[7].at forwardServiceRegistration true
par Scenario.node[7].at forwardProtocolRegistration true
par Scenario.node[7] typename "\"vanettutorials.veins_inet.VeinsInetCar\""
par Scenario.node[7] hasStatus false
par Scenario.node[7] osgModel "\"\""
par Scenario.node[7] osgModelColor "\"\""
par Scenario.node[7] canvasImage "\"\""
par Scenario.node[7] canvasImageColor "\"\""
par Scenario.node[7] recordPcap false
par Scenario.node[7] numPcapRecorders 0
par Scenario.node[7] numLoInterfaces 1
par Scenario.node[7] numWlanInterfaces 1
par Scenario.node[7] numEthInterfaces 0
par Scenario.node[7] numPppInterfaces 0
par Scenario.node[7] numTunInterfaces 0
par Scenario.node[7] numVirtInterfaces 0
par Scenario.node[7] fcsMode "\"declared\""
attr enum declared,computed
par Scenario.node[7] hasIpv4 true
par Scenario.node[7] hasIpv6 false
par Scenario.node[7] hasGn false
par Scenario.node[7] forwarding true
par Scenario.node[7] multicastForwarding false
par Scenario.node[7] hasUdp true
par Scenario.node[7] hasTcp true
par Scenario.node[7] hasSctp false
par Scenario.node[7] numApps 1
par Scenario.node[9].radioIn[0].channel typename "\"ned.IdealChannel\""
par Scenario.node[9].mobility typename "\"vanettutorials.veins_inet.VeinsInetMobility\""
par Scenario.node[9].mobility subjectModule "\"^\""
par Scenario.node[9].mobility coordinateSystemModule "\"\""
par Scenario.node[9].mobility displayStringTextFormat "\"p: %p\\nv: %v\""
attr mutable ""
par Scenario.node[9].mobility updateDisplayString true
par Scenario.node[9].mobility constraintAreaMinX "-inf m"
attr unit m
par Scenario.node[9].mobility constraintAreaMinY "-inf m"
attr unit m
par Scenario.node[9].mobility constraintAreaMinZ "-inf m"
attr unit m
par Scenario.node[9].mobility constraintAreaMaxX "inf m"
attr unit m
par Scenario.node[9].mobility constraintAreaMaxY "inf m"
attr unit m
par Scenario.node[9].mobility constraintAreaMaxZ "inf m"
attr unit m
par Scenario.node[9].mobility initFromDisplayString true
par Scenario.node[9].interfaceTable typename "\"inet.networklayer.common.InterfaceTable\""
par Scenario.node[9].interfaceTable displayAddresses false
par Scenario.node[9].cb typename "\"inet.common.MessageDispatcher\""
par Scenario.node[9].cb displayStringTextFormat "\"processed %p pk (%l)\""
par Scenario.node[9].cb forwardServiceRegistration true
par Scenario.node[9].cb forwardProtocolRegistration true
par Scenario.node[9].bl typename "\"inet.common.MessageDispatcher\""
par Scenario.node[9].bl displayStringTextFormat "\"processed %p pk (%l)\""
par Scenario.node[9].bl forwardServiceRegistration true
par Scenario.node[9].bl forwardProtocolRegistration true
par Scenario.node[9].li typename "\"inet.common.MessageDispatcher\""
par Scenario.node[9].li displayStringTextFormat "\"processed %p pk (%l)\""
par Scenario.node[9].li forwardServiceRegistration true
par Scenario.node[9].li forwardProtocolRegistration true
par Scenario.node[9].lo[0].upperLayerIn.channel typename "\"ned.IdealChannel\""
par Scenario.node[9].lo[0].lo.upperLayerOut.channel typename "\"ned.IdealChannel\""
par Scenario.node[9].lo[0].lo typename "\"inet.linklayer.loopback.Loopback\""
par Scenario.node[9].lo[0].lo interfaceTableModule "\"Scenario.node[9].interfaceTable\""
par Scenario.node[9].lo[0].lo mtu 4470B
attr unit B
scalar Scenario.node[9].lo[0].lo rcvdPkFromHl:count 1
attr interpolationmode none
attr recordingmode count
attr source packetReceivedFromUpper
attr title "packets received from higher layer, count"
scalar Scenario.node[9].lo[0].lo rcvdPkFromHl:sum(packetBytes) 128
attr interpolationmode none
attr recordingmode sum(packetBytes)
attr source packetReceivedFromUpper
attr title "packets received from higher layer, sum(packetBytes)"
scalar Scenario.node[9].lo[0].lo passedUpPk:count 1
attr interpolationmode none
attr recordingmode count
attr source packetSentToUpper
attr title "packets passed to higher layer, count"
scalar Scenario.node[9].lo[0].lo passedUpPk:sum(packetBytes) 128
attr interpolationmode none
attr recordingmode sum(packetBytes)
attr source packetSentToUpper
attr title "packets passed to higher layer, sum(packetBytes)"
par Scenario.node[9].lo[0] typename "\"inet.linklayer.loopback.LoopbackInterface\""
par Scenario.node[9].lo[0] displayStringTextFormat "\"%a (%i)\\n%m\""
par Scenario.node[9].lo[0] recordPcap false
par Scenario.node[9].lo[0] numPcapRecorders 0
par Scenario.node[9].lo[0] interfaceTableModule "\"Scenario.node[9].interfaceTable\""
scalar Scenario.node[9].lo[0] packetDropInterfaceDown:count 0
attr interpolationmode none
attr recordingmode count
attr source packetDropReasonIsInterfaceDown(packetDropped)
attr title "packet drops: interface down, count"
scalar Scenario.node[9].lo[0] packetDropInterfaceDown:sum(packetBytes) 0
attr interpolationmode none
attr recordingmode sum(packetBytes)
attr source packetDropReasonIsInterfaceDown(packetDropped)
attr title "packet drops: interface down, sum(packetBytes)"
scalar Scenario.node[9].lo[0] packetDropNoCarrier:count 0
attr interpolationmode none
attr recordingmode count
attr source packetDropReasonIsNoCarrier(packetDropped)
attr title "packet drops: no carrier, count"
scalar Scenario.node[9].lo[0] packetDropNoCarrier:sum(packetBytes) 0
attr interpolationmode none
attr recordingmode sum(packetBytes)
attr source packetDropReasonIsNoCarrier(packetDropped)
attr title "packet drops: no carrier, sum(packetBytes)"
par Scenario.node[9].wlan[0].radioIn.channel typename "\"ned.IdealChannel\""
par Scenario.node[9].wlan[0].llc.upperLayerOut.channel typename "\"ned.IdealChannel\""
par Scenario.node[9].wlan[0].upperLayerIn.channel typename "\"ned.IdealChannel\""
par Scenario.node[9].wlan[0].mib typename "\"inet.linklayer.ieee80211.mib.Ieee80211Mib\""
par Scenario.node[9].wlan[0].llc typename "\"inet.linklayer.ieee80211.llc.Ieee80211LlcEpd\""
par Scenario.node[9].wlan[0].mgmt typename "\"inet.linklayer.ieee80211.mgmt.Ieee80211MgmtAdhoc\""
par Scenario.node[9].wlan[0].mgmt mibModule "\"Scenario.node[9].wlan[0].mib\""
par Scenario.node[9].wlan[0].mgmt macModule "\"Scenario.node[9].wlan[0].mac\""
par Scenario.node[9].wlan[0].mgmt interfaceTableModule "\"Scenario.node[9].interfaceTable\""
par Scenario.node[9].wlan[0].mac.dcf.channelAccess.pendingQueue typename "\"inet.linklayer.ieee80211.mac.queue.PendingQueue\""
par Scenario.node[9].wlan[0].mac.dcf.channelAccess.pendingQueue displayStringTextFormat "\"contains %p pk (%l) pushed %u\\npulled %o removed %r dropped %d\""
par Scenario.node[9].wlan[0].mac.dcf.channelAccess.pendingQueue packetCapacity 100
par Scenario.node[9].wlan[0].mac.dcf.channelAccess.pendingQueue dataCapacity -1b
attr unit b
par Scenario.node[9].wlan[0].mac.dcf.channelAccess.pendingQueue dropperClass "\"inet::queueing::PacketAtCollectionEndDropper\""
par Scenario.node[9].wlan[0].mac.dcf.channelAccess.pendingQueue comparatorClass "\"inet::ieee80211::MgmtOverDataComparator\""
par Scenario.node[9].wlan[0].mac.dcf.channelAccess.pendingQueue bufferModule "\"\""
scalar Scenario.node[9].wlan[0].mac.dcf.channelAccess.pendingQueue queueLength:last 0
attr autoWarmupFilter false
attr interpolationmode sample-hold
attr recordingmode last
attr source "warmup(atomic(constant0(packetPushEnded) + count(packetPushStarted) - count(packetPulled) - count(packetRemoved) - count(packetDropped)))"
attr title "queue length, last"
attr unit pk
scalar Scenario.node[9].wlan[0].mac.dcf.channelAccess.pendingQueue queueLength:max 1
attr autoWarmupFilter false
attr interpolationmode sample-hold
attr recordingmode max
attr source "warmup(atomic(constant0(packetPushEnded) + count(packetPushStarted) - count(packetPulled) - count(packetRemoved) - count(packetDropped)))"
attr title "queue length, max"
attr unit pk
scalar Scenario.node[9].wlan[0].mac.dcf.channelAccess.pendingQueue queueLength:timeavg 7.2615317330896e-06
attr autoWarmupFilter false
attr interpolationmode sample-hold
attr recordingmode timeavg
attr source "warmup(atomic(constant0(packetPushEnded) + count(packetPushStarted) - count(packetPulled) - count(packetRemoved) - count(packetDropped)))"
attr title "queue length, timeavg"
attr unit pk
scalar Scenario.node[9].wlan[0].mac.dcf.channelAccess.pendingQueue queueBitLength:last 0
attr autoWarmupFilter false
attr interpolationmode sample-hold
attr recordingmode last
attr source "warmup(atomic(constant0(packetPushEnded) + sum(packetLength(packetPushStarted)) - sum(packetLength(packetPulled)) - sum(packetLength(packetRemoved)) - sum(packetLength(packetDropped))))"
attr title "queue bit length, last"
attr unit b
scalar Scenario.node[9].wlan[0].mac.dcf.channelAccess.pendingQueue queueBitLength:max 1264
attr autoWarmupFilter false
attr interpolationmode sample-hold
attr recordingmode max
attr source "warmup(atomic(constant0(packetPushEnded) + sum(packetLength(packetPushStarted)) - sum(packetLength(packetPulled)) - sum(packetLength(packetRemoved)) - sum(packetLength(packetDropped))))"
attr title "queue bit length, max"
attr unit b
scalar Scenario.node[9].wlan[0].mac.dcf.channelAccess.pendingQueue queueBitLength:timeavg 0.0091785761106252
attr autoWarmupFilter false
attr interpolationmode sample-hold
attr recordingmode timeavg
attr source "warmup(atomic(constant0(packetPushEnded) + sum(packetLength(packetPushStarted)) - sum(packetLength(packetPulled)) - sum(packetLength(packetRemoved)) - sum(packetLength(packetDropped))))"
attr title "queue bit length, timeavg"
attr unit b
statistic Scenario.node[9].wlan[0].mac.dcf.channelAccess.pendingQueue queueingTime:histogram
field count 1
field mean 0.000175
field stddev nan
field min 0.000175
field max 0.000175
field sum 0.000175
field sqrsum 3.0625e-08
attr interpolationmode none
attr recordingmode histogram
attr source queueingTime(packetPulled)
attr title "queueing times"
attr unit s
bin	-inf	0
bin	0	1
bin	0.01	0
bin	0.02	0
bin	0.03	0
bin	0.04	0
bin	0.05	0
bin	0.06	0
bin	0.07	0
bin	0.08	0
bin	0.09	0
bin	0.1	0
bin	0.11	0
bin	0.12	0
bin	0.13	0
bin	0.14	0
bin	0.15	0
bin	0.16	0
bin	0.17	0
bin	0.18	0
bin	0.19	0
bin	0.2	0
bin	0.21	0
bin	0.22	0
bin	0.23	0
bin	0.24	0
bin	0.25	0
bin	0.26	0
bin	0.27	0
bin	0.28	0
bin	0.29	0
bin	0.3	0
bin	0.31	0
bin	0.32	0
bin	0.33	0
bin	0.34	0
bin	0.35	0
bin	0.36	0
bin	0.37	0
bin	0.38	0
bin	0.39	0
bin	0.4	0
bin	0.41	0
bin	0.42	0
bin	0.43	0
bin	0.44	0
bin	0.45	0
bin	0.46	0
bin	0.47	0
bin	0.48	0
bin	0.49	0
bin	0.5	0
bin	0.51	0
scalar Scenario.node[9].wlan[0].mac.dcf.channelAccess.pendingQueue outgoingPackets:count 1
attr recordingmode count
attr source packetPulled
attr title "outgoing packets, count"
attr unit pk
scalar Scenario.node[9].wlan[0].mac.dcf.channelAccess.pendingQueue outgoingPacketLengths:sum 1264
attr interpolationmode none
attr recordingmode sum
attr source packetLength(packetPulled)
attr title "outgoing packet lengths, sum"
attr unit b
statistic Scenario.node[9].wlan[0].mac.dcf.channelAccess.pendingQueue outgoingPacketLengths:histogram
field count 1
field mean 1264
field stddev nan
field min 1264
field max 1264
field sum 1264
field sqrsum 1597696
attr interpolationmode none
attr recordingmode histogram
attr source packetLength(packetPulled)
attr title "outgoing packet lengths"
attr unit b
bin	-inf	0
bin	1263	0
bin	1264	1
bin	1265	0
statistic Scenario.node[9].wlan[0].mac.dcf.channelAccess.pendingQueue flowQueueingTime:histogram
field count 0
field mean -nan
field stddev nan
field min nan
field max nan
field sum 0
field sqrsum 0
attr interpolationmode none
attr recordingmode histogram
attr source queueingTime(demuxFlow(packetPulled))
attr title "flow queueing times"
attr unit s
bin	-inf	0
bin	0	0
bin	1	0
scalar Scenario.node[9].wlan[0].mac.dcf.channelAccess.pendingQueue incomingPackets:count 1
attr recordingmode count
attr source packetPushStarted
attr title "incoming packets, count"
attr unit pk
scalar Scenario.node[9].wlan[0].mac.dcf.channelAccess.pendingQueue incomingPacketLengths:sum 1264
attr interpolationmode none
attr recordingmode sum
attr source packetLength(packetPushStarted)
attr title "incoming packet lengths, sum"
attr unit b
statistic Scenario.node[9].wlan[0].mac.dcf.channelAccess.pendingQueue incomingPacketLengths:histogram
field count 1
field mean 1264
field stddev nan
field min 1264
field max 1264
field sum 1264
field sqrsum 1597696
attr interpolationmode none
attr recordingmode histogram
attr source packetLength(packetPushStarted)
attr title "incoming packet lengths"
attr unit b
bin	-inf	0
bin	1263	0
bin	1264	1
bin	1265	0
scalar Scenario.node[9].wlan[0].mac.dcf.channelAccess.pendingQueue droppedPacketsQueueOverflow:count 0
attr interpolationmode none
attr recordingmode count
attr source packetDropReasonIsQueueOverflow(packetDropped)
attr title "dropped packets: queue overflow, count"
attr unit pk
scalar Scenario.node[9].wlan[0].mac.dcf.channelAccess.pendingQueue droppedPacketLengthsQueueOverflow:sum 0
attr interpolationmode none
attr recordingmode sum
attr source packetLength(packetDropReasonIsQueueOverflow(packetDropped))
attr title "dropped packet lengths: queue overflow, sum"
attr unit b
par Scenario.node[9].wlan[0].mac.dcf.channelAccess.inProgressFrames typename "\"inet.linklayer.ieee80211.mac.queue.InProgressFrames\""
par Scenario.node[9].wlan[0].mac.dcf.channelAccess.inProgressFrames pendingQueueModule "\"^.pendingQueue\""
par Scenario.node[9].wlan[0].mac.dcf.channelAccess.inProgressFrames originatorMacDataServiceModule "\"^.^.originatorMacDataService\""
par Scenario.node[9].wlan[0].mac.dcf.channelAccess.inProgressFrames ackHandlerModule "\"^.^.ackHandler\""
statistic Scenario.node[9].wlan[0].mac.dcf.channelAccess.inProgressFrames queueingTime:histogram
field count 1
field mean 0.000152
field stddev nan
field min 0.000152
field max 0.000152
field sum 0.000152
field sqrsum 2.3104e-08
attr interpolationmode none
attr recordingmode histogram
attr source queueingTime(packetDequeued)
attr title "queueing times"
bin	-inf	0
bin	0	1
bin	0.01	0
bin	0.02	0
bin	0.03	0
bin	0.04	0
bin	0.05	0
bin	0.06	0
bin	0.07	0
bin	0.08	0
bin	0.09	0
bin	0.1	0
bin	0.11	0
bin	0.12	0
bin	0.13	0
bin	0.14	0
bin	0.15	0
bin	0.16	0
bin	0.17	0
bin	0.18	0
bin	0.19	0
bin	0.2	0
bin	0.21	0
bin	0.22	0
bin	0.23	0
bin	0.24	0
bin	0.25	0
bin	0.26	0
bin	0.27	0
bin	0.28	0
bin	0.29	0
bin	0.3	0
bin	0.31	0
bin	0.32	0
bin	0.33	0
bin	0.34	0
bin	0.35	0
bin	0.36	0
bin	0.37	0
bin	0.38	0
bin	0.39	0
bin	0.4	0
bin	0.41	0
bin	0.42	0
bin	0.43	0
bin	0.44	0
bin	0.45	0
bin	0.46	0
bin	0.47	0
bin	0.48	0
bin	0.49	0
bin	0.5	0
bin	0.51	0
scalar Scenario.node[9].wlan[0].mac.dcf.channelAccess.inProgressFrames queueLength:max 1
attr autoWarmupFilter false
attr interpolationmode sample-hold
attr recordingmode max
attr source "warmup(count(packetEnqueued) - count(packetDequeued))"
attr title "queue length, max"
scalar Scenario.node[9].wlan[0].mac.dcf.channelAccess.inProgressFrames queueLength:timeavg 4.75e-06
attr autoWarmupFilter false
attr interpolationmode sample-hold
attr recordingmode timeavg
attr source "warmup(count(packetEnqueued) - count(packetDequeued))"
attr title "queue length, timeavg"
par Scenario.node[9].wlan[0].mac.dcf.channelAccess.contention typename "\"inet.linklayer.ieee80211.mac.contention.Contention\""
par Scenario.node[9].wlan[0].mac.dcf.channelAccess.contention initialChannelBusy true
par Scenario.node[9].wlan[0].mac.dcf.channelAccess.contention backoffOptimization true
scalar Scenario.node[9].wlan[0].mac.dcf.channelAccess.contention channelAccessGranted:count 1
attr recordingmode count
attr title "channel access granted, count"
scalar Scenario.node[9].wlan[0].mac.dcf.channelAccess.contention stateChanged:count 34
attr enum IDLE,DEFER,IFS_AND_BACKOFF
attr interpolationmode none
attr recordingmode count
attr title "contention state changed, count"
attr type enum
par Scenario.node[9].wlan[0].mac.dcf.channelAccess typename "\"inet.linklayer.ieee80211.mac.channelaccess.Dcaf\""
par Scenario.node[9].wlan[0].mac.dcf.channelAccess difsn -1
par Scenario.node[9].wlan[0].mac.dcf.channelAccess cwMin -1
par Scenario.node[9].wlan[0].mac.dcf.channelAccess cwMax -1
par Scenario.node[9].wlan[0].mac.dcf.channelAccess rxModule "\"^.^.rx\""
scalar Scenario.node[9].wlan[0].mac.dcf.channelAccess channelOwnershipChanged:count 2
attr interpolationmode sample-hold
attr recordingmode count
attr title "channel ownership, count"
[...]
par Scenario.node[19].wlan[0].radio displayInterferenceRange false
par Scenario.node[19].wlan[0].radio centerFrequency 2.412e+09Hz
attr unit Hz
par Scenario.node[19].wlan[0].radio bandwidth 1e+07Hz
attr unit Hz
par Scenario.node[19].wlan[0].radio signalAnalogRepresentation "\"scalar\""
attr enum scalar,dimensional
par Scenario.node[19].wlan[0].radio opMode "\"p\""
attr enum a,b,g(erp),g(mixed),n(mixed-2.4Ghz),p,ac
par Scenario.node[19].wlan[0].radio bandName "\"5.9 GHz\""
attr enum "2.4 GHz,5 GHz,5 GHz (20 MHz),5 GHz (40 MHz),5 GHz (80 MHz),5 GHz (160 MHz),5.9 GHz"
par Scenario.node[19].wlan[0].radio channelNumber 3
par Scenario.node[19].wlan[0].radio crcMode "\"declared\""
attr enum declared,computed
statistic Scenario.node[19].wlan[0].radio radioChannel:histogram
field count 1
field mean 3
field stddev nan
field min 3
field max 3
field sum 3
field sqrsum 9
attr interpolationmode sample-hold
attr recordingmode histogram
attr source radioChannelChanged
attr title "Radio channel"
bin	-inf	0
bin	2	0
bin	3	1
bin	4	0
scalar Scenario.node[19].wlan[0].radio radioMode:count 3
attr interpolationmode sample-hold
attr recordingmode count
attr source radioModeChanged
attr title "Radio mode, count"
scalar Scenario.node[19].wlan[0].radio receptionState:count 1
attr interpolationmode sample-hold
attr recordingmode count
attr source receptionStateChanged
attr title "Radio reception state, count"
scalar Scenario.node[19].wlan[0].radio transmissionState:count 0
attr interpolationmode sample-hold
attr recordingmode count
attr source transmissionStateChanged
attr title "Radio transmission state, count"
statistic Scenario.node[19].wlan[0].radio minSnir:histogram
field count 0
field mean -nan
field stddev nan
field min nan
field max nan
field sum 0
field sqrsum 0
attr recordingmode histogram
attr source minimumSnir(packetSentToUpper)
attr title "Min SNIR"
bin	-inf	0
bin	0	0
bin	1	0
statistic Scenario.node[19].wlan[0].radio packetErrorRate:histogram
field count 0
field mean -nan
field stddev nan
field min nan
field max nan
field sum 0
field sqrsum 0
attr recordingmode histogram
attr source packetErrorRate(packetSentToUpper)
attr title "Packet error rate"
bin	-inf	0
bin	0	0
bin	1	0
statistic Scenario.node[19].wlan[0].radio bitErrorRate:histogram
field count 0
field mean -nan
field stddev nan
field min nan
field max nan
field sum 0
field sqrsum 0
attr recordingmode histogram
attr source bitErrorRate(packetSentToUpper)
attr title "Bit error rate"
bin	-inf	0
bin	0	0
bin	1	0
statistic Scenario.node[19].wlan[0].radio symbolErrorRate:histogram
field count 0
field mean -nan
field stddev nan
field min nan
field max nan
field sum 0
field sqrsum 0
attr recordingmode histogram
attr source symbolErrorRate(packetSentToUpper)
attr title "Symbol error rate"
bin	-inf	0
bin	0	0
bin	1	0
par Scenario.node[19].wlan[0] typename "\"inet.linklayer.ieee80211.Ieee80211Interface\""
par Scenario.node[19].wlan[0] displayStringTextFormat "\"%a (%i)\\n%m\""
par Scenario.node[19].wlan[0] recordPcap false
par Scenario.node[19].wlan[0] numPcapRecorders 0
par Scenario.node[19].wlan[0] interfaceTableModule "\"Scenario.node[19].interfaceTable\""
par Scenario.node[19].wlan[0] energySourceModule "\"\""
par Scenario.node[19].wlan[0] opMode "\"p\""
attr enum a,b,g(erp),g(mixed),n(mixed-2.4Ghz),p,ac
par Scenario.node[19].wlan[0] address "\"0A-AA-00-00-00-14\""
attr mutable ""
par Scenario.node[19].wlan[0] protocol "\"\""
par Scenario.node[19].wlan[0] bitrate -1bps
attr unit bps
scalar Scenario.node[19].wlan[0] packetDropInterfaceDown:count 0
attr interpolationmode none
attr recordingmode count
attr source packetDropReasonIsInterfaceDown(packetDropped)
attr title "packet drops: interface down, count"
scalar Scenario.node[19].wlan[0] packetDropInterfaceDown:sum(packetBytes) 0
attr interpolationmode none
attr recordingmode sum(packetBytes)
attr source packetDropReasonIsInterfaceDown(packetDropped)
attr title "packet drops: interface down, sum(packetBytes)"
scalar Scenario.node[19].wlan[0] packetDropNoCarrier:count 0
attr interpolationmode none
attr recordingmode count
attr source packetDropReasonIsNoCarrier(packetDropped)
attr title "packet drops: no carrier, count"
scalar Scenario.node[19].wlan[0] packetDropNoCarrier:sum(packetBytes) 0
attr interpolationmode none
attr recordingmode sum(packetBytes)
attr source packetDropReasonIsNoCarrier(packetDropped)
attr title "packet drops: no carrier, sum(packetBytes)"
par Scenario.node[19].ipv4.transportIn.channel typename "\"ned.IdealChannel\""
par Scenario.node[19].ipv4.up.out[0].channel typename "\"ned.IdealChannel\""
par Scenario.node[19].ipv4.lp.out[2].channel typename "\"ned.IdealChannel\""
par Scenario.node[19].ipv4.ifIn.channel typename "\"ned.IdealChannel\""
par Scenario.node[19].ipv4.configurator typename "\"inet.networklayer.configurator.ipv4.HostAutoConfigurator\""
par Scenario.node[19].ipv4.configurator interfaceTableModule "\"Scenario.node[19].interfaceTable\""
par Scenario.node[19].ipv4.configurator interfaces "\"wlan0\""
par Scenario.node[19].ipv4.configurator addressBase "\"10.0.0.0\""
par Scenario.node[19].ipv4.configurator netmask "\"255.0.0.0\""
par Scenario.node[19].ipv4.configurator mcastGroups "\"224.0.0.1\""
par Scenario.node[19].ipv4.routingTable typename "\"inet.networklayer.ipv4.Ipv4RoutingTable\""
par Scenario.node[19].ipv4.routingTable interfaceTableModule "\"Scenario.node[19].interfaceTable\""
par Scenario.node[19].ipv4.routingTable routerId "\"auto\""
par Scenario.node[19].ipv4.routingTable netmaskRoutes "\"*\""
par Scenario.node[19].ipv4.routingTable forwarding true
par Scenario.node[19].ipv4.routingTable multicastForwarding false
par Scenario.node[19].ipv4.routingTable useAdminDist false
par Scenario.node[19].ipv4.routingTable routingFile "\"\""
par Scenario.node[19].ipv4.natTable typename "\"inet.networklayer.ipv4.Ipv4NatTable\""
par Scenario.node[19].ipv4.natTable networkProtocolModule "\"^.ip\""
par Scenario.node[19].ipv4.natTable config "<config/> at content:1"
par Scenario.node[19].ipv4.up typename "\"inet.common.MessageDispatcher\""
par Scenario.node[19].ipv4.up displayStringTextFormat "\"processed %p pk (%l)\""
par Scenario.node[19].ipv4.up forwardServiceRegistration true
par Scenario.node[19].ipv4.up forwardProtocolRegistration true
par Scenario.node[19].ipv4.igmp typename "\"inet.networklayer.ipv4.Igmpv2\""
par Scenario.node[19].ipv4.igmp interfaceTableModule "\"Scenario.node[19].interfaceTable\""
par Scenario.node[19].ipv4.igmp routingTableModule "\"Scenario.node[19].ipv4.routingTable\""
par Scenario.node[19].ipv4.igmp crcMode "\"declared\""
attr enum declared,computed
par Scenario.node[19].ipv4.igmp enabled true
par Scenario.node[19].ipv4.igmp robustnessVariable 2
par Scenario.node[19].ipv4.igmp queryInterval 125s
attr unit s
par Scenario.node[19].ipv4.igmp queryResponseInterval 10s
attr unit s
par Scenario.node[19].ipv4.igmp groupMembershipInterval 260s
attr unit s
par Scenario.node[19].ipv4.igmp otherQuerierPresentInterval 255s
attr unit s
par Scenario.node[19].ipv4.igmp startupQueryInterval 31.25s
attr unit s
par Scenario.node[19].ipv4.igmp startupQueryCount 2
par Scenario.node[19].ipv4.igmp lastMemberQueryInterval 1s
attr unit s
par Scenario.node[19].ipv4.igmp lastMemberQueryCount 2
par Scenario.node[19].ipv4.igmp unsolicitedReportInterval 10s
attr unit s
par Scenario.node[19].ipv4.icmp typename "\"inet.networklayer.ipv4.Icmp\""
par Scenario.node[19].ipv4.icmp interfaceTableModule "\"Scenario.node[19].interfaceTable\""
par Scenario.node[19].ipv4.icmp routingTableModule "\"Scenario.node[19].ipv4.routingTable\""
par Scenario.node[19].ipv4.icmp crcMode "\"declared\""
attr enum declared,computed
attr mutable ""
par Scenario.node[19].ipv4.icmp quoteLength 8B
attr mutable ""
attr unit B
par Scenario.node[19].ipv4.mp typename "\"inet.common.MessageDispatcher\""
par Scenario.node[19].ipv4.mp displayStringTextFormat "\"processed %p pk (%l)\""
par Scenario.node[19].ipv4.mp forwardServiceRegistration true
par Scenario.node[19].ipv4.mp forwardProtocolRegistration true
par Scenario.node[19].ipv4.ip typename "\"inet.networklayer.ipv4.Ipv4\""
par Scenario.node[19].ipv4.ip interfaceTableModule "\"Scenario.node[19].interfaceTable\""
par Scenario.node[19].ipv4.ip routingTableModule "\"Scenario.node[19].ipv4.routingTable\""
par Scenario.node[19].ipv4.ip arpModule "\"Scenario.node[19].ipv4.arp\""
par Scenario.node[19].ipv4.ip icmpModule "\"Scenario.node[19].ipv4.icmp\""
par Scenario.node[19].ipv4.ip crcMode "\"declared\""
attr enum declared,computed
par Scenario.node[19].ipv4.ip timeToLive 32
par Scenario.node[19].ipv4.ip multicastTimeToLive 32
par Scenario.node[19].ipv4.ip fragmentTimeout 60s
attr unit s
par Scenario.node[19].ipv4.ip limitedBroadcast false
par Scenario.node[19].ipv4.ip directBroadcastInterfaces "\"\""
scalar Scenario.node[19].ipv4.ip packetDropAddressResolutionFailed:count 0
attr interpolationmode none
attr recordingmode count
attr source packetDropReasonIsAddressResolutionFailed(packetDropped)
attr title "packet drop: address resolution failed, count"
scalar Scenario.node[19].ipv4.ip packetDropAddressResolutionFailed:sum(packetBytes) 0
attr interpolationmode none
attr recordingmode sum(packetBytes)
attr source packetDropReasonIsAddressResolutionFailed(packetDropped)
attr title "packet drop: address resolution failed, sum(packetBytes)"
scalar Scenario.node[19].ipv4.ip packetDropHopLimitReached:count 0
attr interpolationmode none
attr recordingmode count
attr source packetDropReasonIsHopLimitReached(packetDropped)
attr title "packet drop: hop limit reached, count"
scalar Scenario.node[19].ipv4.ip packetDropHopLimitReached:sum(packetBytes) 0
attr interpolationmode none
attr recordingmode sum(packetBytes)
attr source packetDropReasonIsHopLimitReached(packetDropped)
attr title "packet drop: hop limit reached, sum(packetBytes)"
scalar Scenario.node[19].ipv4.ip packetDropForwardingDisabled:count 0
attr interpolationmode none
attr recordingmode count
attr source packetDropReasonIsForwardingDisabled(packetDropped)
attr title "packet drop: forwarding disabled, count"
scalar Scenario.node[19].ipv4.ip packetDropForwardingDisabled:sum(packetBytes) 0
attr interpolationmode none
attr recordingmode sum(packetBytes)
attr source packetDropReasonIsForwardingDisabled(packetDropped)
attr title "packet drop: forwarding disabled, sum(packetBytes)"
scalar Scenario.node[19].ipv4.ip packetDropNoInterfaceFound:count 0
attr interpolationmode none
attr recordingmode count
attr source packetDropReasonIsNoInterfaceFound(packetDropped)
attr title "packet drop: no interface found, count"
scalar Scenario.node[19].ipv4.ip packetDropNoInterfaceFound:sum(packetBytes) 0
attr interpolationmode none
attr recordingmode sum(packetBytes)
attr source packetDropReasonIsNoInterfaceFound(packetDropped)
attr title "packet drop: no interface found, sum(packetBytes)"
scalar Scenario.node[19].ipv4.ip packetDropNoRouteFound:count 0
attr interpolationmode none
attr recordingmode count
attr source packetDropReasonIsNoRouteFound(packetDropped)
attr title "packet drop: no route found, count"
scalar Scenario.node[19].ipv4.ip packetDropNoRouteFound:sum(packetBytes) 0
attr interpolationmode none
attr recordingmode sum(packetBytes)
attr source packetDropReasonIsNoRouteFound(packetDropped)
attr title "packet drop: no route found, sum(packetBytes)"
scalar Scenario.node[19].ipv4.ip packetDropUndefined:count 0
attr interpolationmode none
attr recordingmode count
attr source packetDropReasonIsUndefined(packetDropped)
attr title "packet drop: undefined, count"
scalar Scenario.node[19].ipv4.ip packetDropUndefined:sum(packetBytes) 0
attr interpolationmode none
attr recordingmode sum(packetBytes)
attr source packetDropReasonIsUndefined(packetDropped)
attr title "packet drop: undefined, sum(packetBytes)"
par Scenario.node[19].ipv4.arp typename "\"inet.networklayer.arp.ipv4.Arp\""
par Scenario.node[19].ipv4.arp interfaceTableModule "\"Scenario.node[19].interfaceTable\""
par Scenario.node[19].ipv4.arp routingTableModule "\"Scenario.node[19].ipv4.routingTable\""
par Scenario.node[19].ipv4.arp retryTimeout 1s
attr unit s
par Scenario.node[19].ipv4.arp retryCount 3
par Scenario.node[19].ipv4.arp cacheTimeout 120s
attr unit s
par Scenario.node[19].ipv4.arp proxyArpInterfaces "\"\""
scalar Scenario.node[19].ipv4.arp arpResolutionFailed:count 0
attr recordingmode count
attr title "ARP failed resolutions, count"
scalar Scenario.node[19].ipv4.arp arpResolutionCompleted:count 0
attr recordingmode count
attr title "ARP completed resolutions, count"
scalar Scenario.node[19].ipv4.arp arpResolutionInitiated:count 0
attr recordingmode count
attr title "ARP initiated resolutions, count"
scalar Scenario.node[19].ipv4.arp arpReplySent:count 0
attr recordingmode count
attr source arpReplySent
attr title "ARP replies sent, count"
scalar Scenario.node[19].ipv4.arp arpReplySent:sum(packetBytes) 0
attr recordingmode sum(packetBytes)
attr source arpReplySent
attr title "ARP replies sent, sum(packetBytes)"
scalar Scenario.node[19].ipv4.arp arpRequestSent:count 0
attr recordingmode count
attr source arpRequestSent
attr title "ARP request sent, count"
scalar Scenario.node[19].ipv4.arp arpRequestSent:sum(packetBytes) 0
attr recordingmode sum(packetBytes)
attr source arpRequestSent
attr title "ARP request sent, sum(packetBytes)"
par Scenario.node[19].ipv4.lp typename "\"inet.common.MessageDispatcher\""
par Scenario.node[19].ipv4.lp displayStringTextFormat "\"processed %p pk (%l)\""
par Scenario.node[19].ipv4.lp forwardServiceRegistration true
par Scenario.node[19].ipv4.lp forwardProtocolRegistration true
par Scenario.node[19].ipv4 typename "\"inet.networklayer.ipv4.Ipv4NetworkLayer\""
par Scenario.node[19].ipv4 forwarding true
par Scenario.node[19].ipv4 multicastForwarding false
par Scenario.node[19].ipv4 interfaceTableModule "\"Scenario.node[19].interfaceTable\""
par Scenario.node[19].ipv4 displayStringTextFormat "\"%i\""
par Scenario.node[19].nl typename "\"inet.common.MessageDispatcher\""
par Scenario.node[19].nl displayStringTextFormat "\"processed %p pk (%l)\""
par Scenario.node[19].nl forwardServiceRegistration true
par Scenario.node[19].nl forwardProtocolRegistration true
par Scenario.node[19].udp typename "\"inet.transportlayer.udp.Udp\""
par Scenario.node[19].udp interfaceTableModule "\"Scenario.node[19].interfaceTable\""
par Scenario.node[19].udp icmpModule "\"^.ipv4.icmp\""
par Scenario.node[19].udp icmpv6Module "\"^.ipv6.icmpv6\""
par Scenario.node[19].udp crcMode "\"declared\""
attr enum disabled,declared,computed
par Scenario.node[19].udp defaultMulticastLoop true
scalar Scenario.node[19].udp packetReceived:count 0
attr interpolationmode none
attr recordingmode count
attr source packetReceived
attr title "packets received, count"
scalar Scenario.node[19].udp packetReceived:sum(packetBytes) 0
attr interpolationmode none
attr recordingmode sum(packetBytes)
attr source packetReceived
attr title "packets received, sum(packetBytes)"
scalar Scenario.node[19].udp packetSent:count 0
attr interpolationmode none
attr recordingmode count
attr source packetSent
attr title "packets sent, count"
scalar Scenario.node[19].udp packetSent:sum(packetBytes) 0
attr interpolationmode none
attr recordingmode sum(packetBytes)
attr source packetSent
attr title "packets sent, sum(packetBytes)"
scalar Scenario.node[19].udp passedUpPk:count 0
attr interpolationmode none
attr recordingmode count
attr source packetSentToUpper
attr title "packets passed up, count"
scalar Scenario.node[19].udp droppedPkWrongPort:count 0
attr interpolationmode none
attr recordingmode count
attr source packetDropReasonIsNoPortFound(packetDropped)
attr title "packets dropped (wrong port), count"
scalar Scenario.node[19].udp droppedPkBadChecksum:count 0
attr interpolationmode none
attr recordingmode count
attr source packetDropReasonIsIncorrectlyReceived(packetDropped)
attr title "packets dropped (checksum error), count"
par Scenario.node[19].tcp typename "\"inet.transportlayer.tcp.Tcp\""
par Scenario.node[19].tcp crcMode "\"declared\""
attr enum declared,computed
par Scenario.node[19].tcp advertisedWindow 7504
par Scenario.node[19].tcp delayedAcksEnabled false
par Scenario.node[19].tcp nagleEnabled true
par Scenario.node[19].tcp limitedTransmitEnabled false
par Scenario.node[19].tcp increasedIWEnabled false
par Scenario.node[19].tcp sackSupport false
par Scenario.node[19].tcp windowScalingSupport false
par Scenario.node[19].tcp windowScalingFactor -1
par Scenario.node[19].tcp timestampSupport false
par Scenario.node[19].tcp mss 536
par Scenario.node[19].tcp msl 120s
attr unit s
par Scenario.node[19].tcp tcpAlgorithmClass "\"TcpReno\""
attr enum TcpVegas,TcpWestwood,TcpNewReno,TcpReno,TcpTahoe,TcpNoCongestionControl
par Scenario.node[19].tcp useDataNotification false
par Scenario.node[19].tcp dupthresh 3
par Scenario.node[19].tcp initialSsthresh 4294967295
par Scenario.node[19].tcp stopOperationExtraTime 0s
attr unit s
par Scenario.node[19].tcp stopOperationTimeout 2s
attr unit s
par Scenario.node[19].tcp ecnWillingness false
par Scenario.node[19].tcp dctcpGamma 0.0625
par Scenario.node[19].tn typename "\"inet.common.MessageDispatcher\""
par Scenario.node[19].tn displayStringTextFormat "\"processed %p pk (%l)\""
par Scenario.node[19].tn forwardServiceRegistration true
par Scenario.node[19].tn forwardProtocolRegistration true
par Scenario.node[19].app[0] typename "\"vanettutorials.veins_inet.VeinsInetSampleApplication\""
par Scenario.node[19].app[0] interfaceTableModule "\"Scenario.node[19].interfaceTable\""
par Scenario.node[19].app[0] interface "\"wlan0\""
scalar Scenario.node[19].app[0] packetReceived:count 0
attr interpolationmode none
attr recordingmode count
attr source packetReceived
attr title "packets received, count"
scalar Scenario.node[19].app[0] packetReceived:sum(packetBytes) 0
attr interpolationmode none
attr recordingmode sum(packetBytes)
attr source packetReceived
attr title "packets received, sum(packetBytes)"
statistic Scenario.node[19].app[0] rcvdPkLifetime:stats
field count 0
field mean -nan
field stddev nan
field min nan
field max nan
field sum 0
field sqrsum 0
attr interpolationmode none
attr recordingmode stats
attr source dataAge(packetReceived)
attr title "received packet lifetime"
attr unit s
scalar Scenario.node[19].app[0] packetSent:count 0
attr interpolationmode none
attr recordingmode count
attr source packetSent
attr title "packets sent, count"
scalar Scenario.node[19].app[0] packetSent:sum(packetBytes) 0
attr interpolationmode none
attr recordingmode sum(packetBytes)
attr source packetSent
attr title "packets sent, sum(packetBytes)"
par Scenario.node[19].at typename "\"inet.common.MessageDispatcher\""
par Scenario.node[19].at displayStringTextFormat "\"processed %p pk (%l)\""
par Scenario.node[19].at forwardServiceRegistration true
par Scenario.node[19].at forwardProtocolRegistration true
par Scenario.node[19] typename "\"vanettutorials.veins_inet.VeinsInetCar\""
par Scenario.node[19] hasStatus false
par Scenario.node[19] osgModel "\"\""
par Scenario.node[19] osgModelColor "\"\""
par Scenario.node[19] canvasImage "\"\""
par Scenario.node[19] canvasImageColor "\"\""
par Scenario.node[19] recordPcap false
par Scenario.node[19] numPcapRecorders 0
par Scenario.node[19] numLoInterfaces 1
par Scenario.node[19] numWlanInterfaces 1
par Scenario.node[19] numEthInterfaces 0
par Scenario.node[19] numPppInterfaces 0
par Scenario.node[19] numTunInterfaces 0
par Scenario.node[19] numVirtInterfaces 0
par Scenario.node[19] fcsMode "\"declared\""
attr enum declared,computed
par Scenario.node[19] hasIpv4 true
par Scenario.node[19] hasIpv6 false
par Scenario.node[19] hasGn false
par Scenario.node[19] forwarding true
par Scenario.node[19] multicastForwarding false
par Scenario.node[19] hasUdp true
par Scenario.node[19] hasTcp true
par Scenario.node[19] hasSctp false
par Scenario.node[19] numApps 1
par Scenario typename "\"vanettutorials.simulations.exercise.Scenario\""
par Scenario useOsg false

