version 3
run General-0-20220617-22:47:27-7865
attr configname General
attr datetime 20220617-22:47:27
attr datetimef 20220617-224727
attr experiment General
attr inifile omnetpp.ini
attr iterationvars ""
attr iterationvarsd ""
attr iterationvarsf ""
attr measurement ""
attr network myTestNetwork
attr processid 7865
attr repetition 0
attr replication #0
attr resultdir results
attr runnumber 0
attr seedset 0
config image-path ../../../../../Documents/inet/images:../../../../../Documents/veins/images
config cmdenv-express-mode true
config cmdenv-autoflush true
config cmdenv-status-frequency 0.1s
config **.cmdenv-log-level info
config ned-path .
config image-path ../../images
config network myTestNetwork
config debug-on-errors true
config print-undisposed true
config sim-time-limit 2000s
config **.scalar-recording true
config **.vector-recording true
config *.playgroundSizeX 5000m
config *.playgroundSizeY 5000m
config *.playgroundSizeZ 50m
config *.annotations.draw true
config *.manager.updateInterval 0.1s
config *.manager.host "\"localhost\""
config *.manager.port 9999
config *.manager.autoShutdown true
config *.manager.launchConfig "xmldoc(\"square.launchd.xml\")"
config *.rsu[0].mobility.x 100
config *.rsu[0].mobility.y 100
config *.rsu[0].mobility.z 3
config *.rsu[*].applType "\"RSUControlApp\""
config *.rsu[*].appl.headerLength "80 bit"
config *.rsu[*].appl.sendBeacons false
config *.rsu[*].appl.dataOnSch false
config *.rsu[*].nic.phy80211p.antennaOffsetZ "0 m"
config *.connectionManager.sendDirect true
config *.connectionManager.maxInterfDist 2600m
config *.connectionManager.drawMaxIntfDist false
config *.**.nic.mac1609_4.useServiceChannel true
config *.**.nic.mac1609_4.txPower 20mW
config *.**.nic.mac1609_4.bitrate 6Mbps
config *.**.nic.phy80211p.minPowerLevel -110dBm
config *.**.nic.phy80211p.useNoiseFloor true
config *.**.nic.phy80211p.noiseFloor -98dBm
config *.**.nic.phy80211p.decider "xmldoc(\"config.xml\")"
config *.**.nic.phy80211p.analogueModels "xmldoc(\"config.xml\")"
config *.**.nic.phy80211p.usePropagationDelay true
config *.**.nic.phy80211p.antenna "xmldoc(\"antenna.xml\", \"/root/Antenna[@id='monopole']\")"
config *.node[*].nic.phy80211p.antennaOffsetY "0 m"
config *.node[*].nic.phy80211p.antennaOffsetZ "1.895 m"
config *.node[*].applType "\"VehicleControlApp\""
config *.node[*].appl.headerLength "80 bit"
config *.node[*].appl.sendBeacons false
config *.node[*].appl.dataOnSch true
config *.node[*].appl.beaconInterval 0.1s
config *.node[*].veinsmobility.x 0
config *.node[*].veinsmobility.y 0
config *.node[*].veinsmobility.z 0
config *.node[*].veinsmobility.setHostSpeed false
config *.node[*0].veinsmobility.accidentCount 0

vector 0 myTestNetwork.node[0].veinsmobility posx ETV
vector 1 myTestNetwork.node[0].veinsmobility posy ETV
vector 2 myTestNetwork.node[0].veinsmobility speed ETV
vector 3 myTestNetwork.node[0].veinsmobility acceleration ETV
vector 4 myTestNetwork.node[0].veinsmobility co2emission ETV
4	56	0.3	0.973
4	104	0.4	0.973
4	152	0.5	0.973
4	200	0.6	0.973
4	248	0.7	0.973
4	296	0.8	0.973
4	344	0.9	0.973
4	392	1	0.973
4	440	1.1	17.528647651195
4	488	1.2	1.2370476511949
4	536	1.3	1.2370476511949
4	584	1.4	1.2370476511949
4	632	1.5	1.2370476511949
4	680	1.6	1.2370476511949
4	728	1.7	1.2370476511949
4	776	1.8	1.2370476511949
4	824	1.9	1.2370476511949
4	872	2	1.2370476511949
4	920	2.1	15.031401573118
4	968	2.2	1.3097828588576
4	1016	2.3	1.3097828588576
4	1064	2.4	1.3097828588576
4	1112	2.5	1.3097828588576
4	1160	2.6	1.3097828588576
4	1208	2.7	1.3097828588576
4	1256	2.8	1.3097828588576
4	1304	2.9	1.3097828588576
4	1352	3	1.3097828588576
4	1400	3.1	1.3097828588576
4	1448	3.2	1.3097828588576
4	1496	3.3	1.3097828588576
4	1544	3.4	1.3097828588576
4	1592	3.5	1.3097828588576
4	1640	3.6	1.3097828588576
4	1688	3.7	1.3097828588576
4	1736	3.8	1.3097828588576
4	1784	3.9	1.3097828588576
4	1832	4	1.3097828588576
4	1880	4.1	1.3097828588576
4	1928	4.2	1.3097828588576
4	1976	4.3	1.3097828588576
4	2024	4.4	1.3097828588576
4	2072	4.5	1.3097828588576
4	2120	4.6	1.3097828588576
4	2168	4.7	1.3097828588576
4	2216	4.8	1.3097828588576
4	2264	4.9	1.3097828588576
4	2312	5	1.3097828588576
4	2360	5.1	1.3097828588576
4	2408	5.2	1.3097828588576
4	2456	5.3	1.3097828588576
4	2504	5.4	1.3097828588576
4	2552	5.5	1.3097828588576
4	2600	5.6	1.3097828588576
4	2648	5.7	1.3097828588576
4	2696	5.8	1.3097828588576
4	2744	5.9	1.3097828588576
4	2792	6	1.3097828588576
4	2840	6.1	1.3097828588576
4	2888	6.2	1.3097828588576
4	2936	6.3	1.3097828588576
4	2984	6.4	1.3097828588576
4	3032	6.5	1.3097828588576
4	3080	6.6	1.3097828588576
4	3128	6.7	1.3097828588576
4	3176	6.8	1.3097828588576
4	3224	6.9	1.3097828588576
4	3272	7	1.3097828588576
4	3320	7.1	1.3097828588576
4	3368	7.2	1.3097828588576
4	3416	7.3	1.3097828588576
4	3464	7.4	1.3097828588576
4	3512	7.5	1.3097828588576
4	3560	7.6	1.3097828588576
4	3608	7.7	1.3097828588576
4	3656	7.8	1.3097828588576
4	3704	7.9	1.3097828588576
4	3752	8	1.3097828588576
4	3800	8.1	1.3097828588576
4	3848	8.2	1.3097828588576
4	3896	8.3	1.3097828588576
4	3944	8.4	1.3097828588576
4	3992	8.5	1.3097828588576
4	4040	8.6	1.3097828588576
4	4088	8.7	1.3097828588576
4	4136	8.8	1.3097828588576
4	4184	8.9	1.3097828588576
4	4232	9	1.3097828588576
4	4280	9.1	1.3097828588576
4	4328	9.2	1.3097828588576
4	4376	9.3	1.3097828588576
4	4424	9.4	1.3097828588576
4	4472	9.5	1.3097828588576
4	4520	9.6	1.3097828588576
4	4568	9.7	1.3097828588576
4	4616	9.8	1.3097828588576
4	4664	9.9	1.3097828588576
4	4712	10	1.3097828588576
4	4760	10.1	1.3097828588576
4	4808	10.2	1.3097828588576
4	4856	10.3	1.3097828588576
4	4904	10.4	1.3097828588576
4	4952	10.5	1.3097828588576
4	5000	10.6	1.3097828588576
4	5048	10.7	1.3097828588576
4	5096	10.8	1.3097828588576
4	5144	10.9	1.3097828588576
4	5192	11	1.3097828588576
4	5240	11.1	1.3097828588576
4	5288	11.2	1.3097828588576
4	5336	11.3	1.3097828588576
4	5384	11.4	1.3097828588576
4	5432	11.5	1.3097828588576
4	5480	11.6	1.3097828588576
4	5528	11.7	1.3097828588576
4	5576	11.8	1.3097828588576
4	5624	11.9	1.3097828588576
4	5672	12	1.3097828588576
4	5720	12.1	1.3097828588576
4	5768	12.2	1.3097828588576
4	5816	12.3	1.3097828588576
4	5864	12.4	1.3097828588576
4	5912	12.5	1.3097828588576
4	5960	12.6	1.3097828588576
4	6008	12.7	1.3097828588576
4	6056	12.8	1.3097828588576
4	6104	12.9	1.3097828588576
4	6152	13	1.3097828588576
4	6200	13.1	1.3097828588576
4	6248	13.2	1.3097828588576
4	6296	13.3	1.3097828588576
4	6344	13.4	1.3097828588576
4	6392	13.5	1.3097828588576
4	6440	13.6	1.3097828588576
4	6488	13.7	1.3097828588576
4	6536	13.8	1.3097828588576
4	6584	13.9	1.3097828588576
4	6632	14	1.3097828588576
4	6680	14.1	1.3097828588576
4	6728	14.2	1.3097828588576
4	6776	14.3	1.3097828588576
4	6824	14.4	1.3097828588576
4	6872	14.5	1.3097828588576
4	6920	14.6	1.3097828588576
4	6968	14.7	1.3097828588576
4	7016	14.8	1.3097828588576
4	7064	14.9	1.3097828588576
4	7112	15	1.3097828588576
4	7160	15.1	1.3097828588576
4	7208	15.2	1.3097828588576
4	7256	15.3	1.3097828588576
4	7304	15.4	1.3097828588576
4	7352	15.5	1.3097828588576
4	7400	15.6	1.3097828588576
4	7448	15.7	1.3097828588576
4	7496	15.8	1.3097828588576
4	7544	15.9	1.3097828588576
4	7592	16	1.3097828588576
4	7640	16.1	1.3097828588576
4	7688	16.2	1.3097828588576
4	7736	16.3	1.3097828588576
4	7784	16.4	1.3097828588576
4	7832	16.5	1.3097828588576
4	7880	16.6	1.3097828588576
4	7928	16.7	1.3097828588576
4	7976	16.8	1.3097828588576
4	8024	16.9	1.3097828588576
4	8072	17	1.3097828588576
4	8120	17.1	1.3097828588576
4	8168	17.2	1.3097828588576
4	8216	17.3	1.3097828588576
4	8264	17.4	1.3097828588576
4	8312	17.5	1.3097828588576
4	8360	17.6	1.3097828588576
4	8408	17.7	1.3097828588576
4	8456	17.8	1.3097828588576
4	8504	17.9	1.3097828588576
4	8552	18	1.3097828588576
4	8600	18.1	1.3097828588576
4	8648	18.2	1.3097828588576
4	8696	18.3	1.3097828588576
4	8744	18.4	1.3097828588576
4	8792	18.5	1.3097828588576
4	8840	18.6	1.3097828588576
4	8888	18.7	1.3097828588576
4	8936	18.8	1.3097828588576
4	8984	18.9	1.3097828588576
4	9032	19	1.3097828588576
4	9080	19.1	1.3097828588576
4	9128	19.2	1.3097828588576
4	9176	19.3	1.3097828588576
4	9224	19.4	1.3097828588576
4	9272	19.5	1.3097828588576
4	9320	19.6	1.3097828588576
4	9368	19.7	1.3097828588576
4	9416	19.8	1.3097828588576
4	9464	19.9	1.3097828588576
4	9512	20	1.3097828588576
4	9560	20.1	1.3097828588576
4	9608	20.2	1.3097828588576
4	9656	20.3	1.3097828588576
4	9704	20.4	1.3097828588576
4	9752	20.5	1.3097828588576
4	9800	20.6	1.3097828588576
4	9848	20.7	1.3097828588576
4	9896	20.8	1.3097828588576
4	9944	20.9	1.3097828588576
4	9992	21	1.3097828588576
4	10040	21.1	1.3097828588576
4	10088	21.2	1.3097828588576
4	10136	21.3	1.3097828588576
4	10184	21.4	1.3097828588576
4	10232	21.5	1.3097828588576
4	10280	21.6	1.3097828588576
4	10328	21.7	1.3097828588576
4	10376	21.8	1.3097828588576
4	10424	21.9	1.3097828588576
4	10472	22	1.3097828588576
4	10520	22.1	1.3097828588576
4	10568	22.2	1.3097828588576
4	10616	22.3	1.3097828588576
4	10664	22.4	1.3097828588576
4	10712	22.5	1.3097828588576
4	10760	22.6	1.3097828588576
4	10808	22.7	1.3097828588576
4	10856	22.8	1.3097828588576
4	10904	22.9	1.3097828588576
4	10952	23	1.3097828588576
4	11000	23.1	1.3097828588576
4	11048	23.2	1.3097828588576
4	11096	23.3	1.3097828588576
4	11144	23.4	1.3097828588576
4	11192	23.5	1.3097828588576
4	11240	23.6	1.3097828588576
4	11288	23.7	1.3097828588576
4	11336	23.8	1.3097828588576
4	11384	23.9	1.3097828588576
4	11432	24	1.3097828588576
4	11480	24.1	1.3097828588576
4	11528	24.2	1.3097828588576
4	11576	24.3	1.3097828588576
4	11624	24.4	1.3097828588576
4	11672	24.5	1.3097828588576
4	11720	24.6	1.3097828588576
4	11768	24.7	1.3097828588576
4	11816	24.8	1.3097828588576
4	11864	24.9	1.3097828588576
4	11912	25	1.3097828588576
4	11960	25.1	1.3097828588576
4	12008	25.2	1.3097828588576
4	12056	25.3	1.3097828588576
4	12104	25.4	1.3097828588576
4	12152	25.5	1.3097828588576
4	12200	25.6	1.3097828588576
4	12248	25.7	1.3097828588576
4	12296	25.8	1.3097828588576
4	12344	25.9	1.3097828588576
4	12392	26	1.3097828588576
4	12440	26.1	1.3097828588576
4	12488	26.2	1.3097828588576
4	12536	26.3	1.3097828588576
4	12584	26.4	1.3097828588576
4	12632	26.5	1.3097828588576
4	12680	26.6	1.3097828588576
4	12728	26.7	1.3097828588576
4	12776	26.8	1.3097828588576
4	12824	26.9	1.3097828588576
4	12872	27	1.3097828588576
4	12920	27.1	1.3097828588576
4	12968	27.2	1.3097828588576
4	13016	27.3	1.3097828588576
4	13064	27.4	1.3097828588576
4	13112	27.5	1.3097828588576
4	13160	27.6	1.3097828588576
4	13208	27.7	1.3097828588576
4	13256	27.8	1.3097828588576
4	13304	27.9	1.3097828588576
4	13352	28	1.3097828588576
4	13400	28.1	1.3097828588576
4	13448	28.2	1.3097828588576
4	13496	28.3	1.3097828588576
4	13544	28.4	1.3097828588576
4	13592	28.5	1.3097828588576
4	13640	28.6	1.3097828588576
4	13688	28.7	1.3097828588576
4	13736	28.8	1.3097828588576
4	13784	28.9	1.3097828588576
4	13832	29	1.3097828588576
4	13880	29.1	1.3097828588576
4	13928	29.2	1.3097828588576
4	13976	29.3	1.3097828588576
4	14024	29.4	1.3097828588576
4	14072	29.5	1.3097828588576
4	14120	29.6	1.3097828588576
4	14168	29.7	1.3097828588576
4	14216	29.8	1.3097828588576
4	14264	29.9	1.3097828588576
4	14312	30	1.3097828588576
4	14360	30.1	1.3097828588576
4	14408	30.2	1.3097828588576
4	14456	30.3	1.3097828588576
4	14504	30.4	1.3097828588576
4	14552	30.5	1.3097828588576
4	14600	30.6	1.3097828588576
4	14648	30.7	1.3097828588576
4	14696	30.8	1.3097828588576
4	14744	30.9	1.3097828588576
4	14792	31	1.3097828588576
4	14840	31.1	1.3097828588576
4	14888	31.2	1.3097828588576
4	14936	31.3	1.3097828588576
4	14984	31.4	1.3097828588576
4	15032	31.5	1.3097828588576
4	15080	31.6	1.3097828588576
4	15128	31.7	1.3097828588576
4	15176	31.8	1.3097828588576
4	15224	31.9	1.3097828588576
4	15272	32	1.3097828588576
4	15320	32.1	1.3097828588576
4	15368	32.2	1.3097828588576
4	15416	32.3	1.3097828588576
4	15464	32.4	1.3097828588576
4	15512	32.5	1.3097828588576
4	15560	32.6	1.3097828588576
4	15608	32.7	1.3097828588576
4	15656	32.8	1.3097828588576
4	15704	32.9	1.3097828588576
4	15752	33	1.3097828588576
4	15800	33.1	1.3097828588576
4	15848	33.2	1.3097828588576
4	15896	33.3	1.3097828588576
4	15944	33.4	1.3097828588576
4	15992	33.5	1.3097828588576
4	16040	33.6	1.3097828588576
4	16088	33.7	1.3097828588576
4	16136	33.8	1.3097828588576
4	16184	33.9	1.3097828588576
4	16232	34	1.3097828588576
4	16280	34.1	1.3097828588576
4	16328	34.2	1.3097828588576
4	16376	34.3	1.3097828588576
4	16424	34.4	1.3097828588576
4	16472	34.5	1.3097828588576
4	16520	34.6	1.3097828588576
4	16568	34.7	1.3097828588576
4	16616	34.8	1.3097828588576
4	16664	34.9	1.3097828588576
4	16712	35	1.3097828588576
4	16760	35.1	1.3097828588576
4	16808	35.2	1.3097828588576
4	16856	35.3	1.3097828588576
4	16904	35.4	1.3097828588576
4	16952	35.5	1.3097828588576
4	17000	35.6	1.3097828588576
4	17048	35.7	1.3097828588576
4	17096	35.8	1.3097828588576
4	17144	35.9	1.3097828588576
4	17192	36	1.3097828588576
4	17240	36.1	1.3097828588576
4	17288	36.2	1.3097828588576
4	17336	36.3	1.3097828588576
4	17384	36.4	1.3097828588576
4	17432	36.5	1.3097828588576
4	17480	36.6	1.3097828588576
4	17528	36.7	1.3097828588576
4	17576	36.8	1.3097828588576
4	17624	36.9	1.3097828588576
4	17672	37	1.3097828588576
4	17720	37.1	1.3097828588576
4	17768	37.2	1.3097828588576
4	17816	37.3	1.3097828588576
4	17864	37.4	1.3097828588576
4	17912	37.5	1.3097828588576
4	17960	37.6	1.3097828588576
4	18008	37.7	1.3097828588576
4	18056	37.8	1.3097828588576
4	18104	37.9	1.3097828588576
4	18152	38	1.3097828588576
4	18200	38.1	1.3097828588576
4	18248	38.2	1.3097828588576
4	18296	38.3	1.3097828588576
4	18344	38.4	1.3097828588576
4	18392	38.5	1.3097828588576
4	18440	38.6	1.3097828588576
4	18488	38.7	1.3097828588576
4	18536	38.8	1.3097828588576
4	18584	38.9	1.3097828588576
4	18632	39	1.3097828588576
4	18680	39.1	1.3097828588576
4	18728	39.2	1.3097828588576
4	18776	39.3	1.3097828588576
4	18824	39.4	1.3097828588576
4	18872	39.5	1.3097828588576
4	18920	39.6	1.3097828588576
4	18968	39.7	1.3097828588576
4	19016	39.8	1.3097828588576
4	19064	39.9	1.3097828588576
4	19112	40	1.3097828588576
4	19160	40.1	1.3097828588576
4	19208	40.2	1.3097828588576
4	19256	40.3	1.3097828588576
4	19304	40.4	1.3097828588576
4	19352	40.5	1.3097828588576
4	19400	40.6	1.3097828588576
4	19448	40.7	1.3097828588576
4	19496	40.8	1.3097828588576
4	19544	40.9	1.3097828588576
4	19592	41	1.3097828588576
4	19640	41.1	1.3097828588576
4	19688	41.2	1.3097828588576
4	19736	41.3	1.3097828588576
4	19784	41.4	1.3097828588576
4	19832	41.5	1.3097828588576
4	19880	41.6	1.3097828588576
4	19928	41.7	1.3097828588576
4	19976	41.8	1.3097828588576
4	20024	41.9	1.3097828588576
4	20072	42	1.3097828588576
4	20120	42.1	1.3097828588576
4	20168	42.2	1.3097828588576
4	20216	42.3	1.3097828588576
4	20264	42.4	1.3097828588576
4	20312	42.5	1.3097828588576
4	20360	42.6	1.3097828588576
4	20408	42.7	1.3097828588576
4	20456	42.8	1.3097828588576
4	20504	42.9	1.3097828588576
4	20552	43	1.3097828588576
4	20600	43.1	1.3097828588576
4	20648	43.2	1.3097828588576
4	20696	43.3	1.3097828588576
4	20744	43.4	1.3097828588576
4	20792	43.5	1.3097828588576
4	20840	43.6	1.3097828588576
4	20888	43.7	1.3097828588576
4	20936	43.8	1.3097828588576
4	20984	43.9	1.3097828588576
4	21032	44	1.3097828588576
4	21080	44.1	1.3097828588576
4	21128	44.2	1.3097828588576
4	21176	44.3	1.3097828588576
4	21224	44.4	1.3097828588576
4	21272	44.5	1.3097828588576
4	21320	44.6	1.3097828588576
4	21368	44.7	1.3097828588576
4	21416	44.8	1.3097828588576
4	21464	44.9	1.3097828588576
4	21512	45	1.3097828588576
4	21560	45.1	1.3097828588576
4	21608	45.2	1.3097828588576
4	21656	45.3	1.3097828588576
4	21704	45.4	1.3097828588576
4	21752	45.5	1.3097828588576
4	21800	45.6	1.3097828588576
4	21848	45.7	1.3097828588576
4	21896	45.8	1.3097828588576
4	21944	45.9	1.3097828588576
4	21992	46	1.3097828588576
4	22040	46.1	1.3097828588576
4	22088	46.2	1.3097828588576
4	22136	46.3	1.3097828588576
4	22184	46.4	1.3097828588576
4	22232	46.5	1.3097828588576
4	22280	46.6	1.3097828588576
4	22328	46.7	1.3097828588576
4	22376	46.8	1.3097828588576
4	22424	46.9	1.3097828588576
4	22472	47	1.3097828588576
4	22520	47.1	1.3097828588576
4	22568	47.2	1.3097828588576
4	22616	47.3	1.3097828588576
4	22664	47.4	1.3097828588576
4	22712	47.5	1.3097828588576
4	22760	47.6	1.3097828588576
4	22808	47.7	1.3097828588576
4	22856	47.8	1.3097828588576
4	22904	47.9	1.3097828588576
4	22952	48	1.3097828588576
4	23000	48.1	1.3097828588576
4	23048	48.2	1.3097828588576
4	23096	48.3	1.3097828588576
4	23144	48.4	1.3097828588576
4	23192	48.5	1.3097828588576
4	23240	48.6	1.3097828588576
4	23288	48.7	1.3097828588576
4	23336	48.8	1.3097828588576
4	23384	48.9	1.3097828588576
4	23432	49	1.3097828588576
4	23480	49.1	1.3097828588576
4	23528	49.2	1.3097828588576
4	23576	49.3	1.3097828588576
4	23624	49.4	1.3097828588576
4	23672	49.5	1.3097828588576
4	23720	49.6	1.3097828588576
4	23768	49.7	1.3097828588576
4	23816	49.8	1.3097828588576
4	23864	49.9	1.3097828588576
4	23912	50	1.3097828588576
4	23960	50.1	1.3097828588576
4	24008	50.2	1.3097828588576
4	24056	50.3	1.3097828588576
4	24104	50.4	1.3097828588576
4	24152	50.5	1.3097828588576
4	24200	50.6	1.3097828588576
4	24248	50.7	1.3097828588576
4	24296	50.8	1.3097828588576
4	24344	50.9	1.3097828588576
4	24392	51	1.3097828588576
4	24440	51.1	1.3097828588576
4	24488	51.2	1.3097828588576
4	24536	51.3	1.3097828588576
4	24584	51.4	1.3097828588576
4	24632	51.5	1.3097828588576
4	24680	51.6	1.3097828588576
4	24728	51.7	1.3097828588576
4	24776	51.8	1.3097828588576
4	24824	51.9	1.3097828588576
4	24872	52	1.3097828588576
4	24920	52.1	1.3097828588576
4	24968	52.2	1.3097828588576
4	25016	52.3	1.3097828588576
4	25064	52.4	1.3097828588576
4	25112	52.5	1.3097828588576
4	25160	52.6	1.3097828588576
4	25208	52.7	1.3097828588576
4	25256	52.8	1.3097828588576
4	25304	52.9	1.3097828588576
4	25352	53	1.3097828588576
4	25400	53.1	1.3097828588576
4	25448	53.2	1.3097828588576
4	25496	53.3	1.3097828588576
4	25544	53.4	1.3097828588576
4	25592	53.5	1.3097828588576
4	25640	53.6	1.3097828588576
4	25688	53.7	1.3097828588576
4	25736	53.8	1.3097828588576
4	25784	53.9	1.3097828588576
4	25832	54	1.3097828588576
4	25880	54.1	1.3097828588576
4	25928	54.2	1.3097828588576
4	25976	54.3	1.3097828588576
4	26024	54.4	1.3097828588576
4	26072	54.5	1.3097828588576
4	26120	54.6	1.3097828588576
4	26168	54.7	1.3097828588576
4	26216	54.8	1.3097828588576
4	26264	54.9	1.3097828588576
4	26312	55	1.3097828588576
4	26360	55.1	1.3097828588576
4	26408	55.2	1.3097828588576
4	26456	55.3	1.3097828588576
4	26504	55.4	1.3097828588576
4	26552	55.5	1.3097828588576
4	26600	55.6	1.3097828588576
4	26648	55.7	1.3097828588576
4	26696	55.8	1.3097828588576
4	26744	55.9	1.3097828588576
4	26792	56	1.3097828588576
4	26840	56.1	1.3097828588576
4	26888	56.2	1.3097828588576
4	26936	56.3	1.3097828588576
4	26984	56.4	1.3097828588576
4	27032	56.5	1.3097828588576
4	27080	56.6	1.3097828588576
4	27128	56.7	1.3097828588576
4	27176	56.8	1.3097828588576
4	27224	56.9	1.3097828588576
4	27272	57	1.3097828588576
4	27320	57.1	1.3097828588576
4	27368	57.2	1.3097828588576
4	27416	57.3	1.3097828588576
4	27464	57.4	1.3097828588576
4	27512	57.5	1.3097828588576
4	27560	57.6	1.3097828588576
4	27608	57.7	1.3097828588576
4	27656	57.8	1.3097828588576
4	27704	57.9	1.3097828588576
4	27752	58	1.3097828588576
4	27800	58.1	1.3097828588576
4	27848	58.2	1.3097828588576
4	27896	58.3	1.3097828588576
4	27944	58.4	1.3097828588576
4	27992	58.5	1.3097828588576
4	28040	58.6	1.3097828588576
4	28088	58.7	1.3097828588576
4	28136	58.8	1.3097828588576
4	28184	58.9	1.3097828588576
4	28232	59	1.3097828588576
4	28280	59.1	1.3097828588576
4	28328	59.2	1.3097828588576
4	28376	59.3	1.3097828588576
4	28424	59.4	1.3097828588576
4	28472	59.5	1.3097828588576
4	28520	59.6	1.3097828588576
4	28568	59.7	1.3097828588576
4	28616	59.8	1.3097828588576
4	28664	59.9	1.3097828588576
4	28712	60	1.3097828588576
4	28760	60.1	1.3097828588576
4	28808	60.2	1.3097828588576
4	28856	60.3	1.3097828588576
4	28904	60.4	1.3097828588576
4	28952	60.5	1.3097828588576
4	29000	60.6	1.3097828588576
4	29048	60.7	1.3097828588576
4	29096	60.8	1.3097828588576
4	29144	60.9	1.3097828588576
4	29192	61	1.3097828588576
4	29240	61.1	1.3097828588576
4	29288	61.2	1.3097828588576
4	29336	61.3	1.3097828588576
4	29384	61.4	1.3097828588576
4	29432	61.5	1.3097828588576
4	29480	61.6	1.3097828588576
4	29528	61.7	1.3097828588576
4	29576	61.8	1.3097828588576
4	29624	61.9	1.3097828588576
4	29672	62	1.3097828588576
4	29720	62.1	1.3097828588576
4	29768	62.2	1.3097828588576
4	29816	62.3	1.3097828588576
4	29864	62.4	1.3097828588576
4	29912	62.5	1.3097828588576
4	29960	62.6	1.3097828588576
4	30008	62.7	1.3097828588576
4	30056	62.8	1.3097828588576
4	30104	62.9	1.3097828588576
4	30152	63	1.3097828588576
4	30200	63.1	1.3097828588576
4	30248	63.2	1.3097828588576
4	30296	63.3	1.3097828588576
4	30344	63.4	1.3097828588576
4	30392	63.5	1.3097828588576
4	30440	63.6	1.3097828588576
4	30488	63.7	1.3097828588576
4	30536	63.8	1.3097828588576
4	30584	63.9	1.3097828588576
4	30632	64	1.3097828588576
4	30680	64.1	1.3097828588576
4	30728	64.2	1.3097828588576
4	30776	64.3	1.3097828588576
4	30824	64.4	1.3097828588576
4	30872	64.5	1.3097828588576
4	30920	64.6	1.3097828588576
4	30968	64.7	1.3097828588576
4	31016	64.8	1.3097828588576
4	31064	64.9	1.3097828588576
4	31112	65	1.3097828588576
4	31160	65.1	1.3097828588576
4	31208	65.2	1.3097828588576
4	31256	65.3	1.3097828588576
4	31304	65.4	1.3097828588576
4	31352	65.5	1.3097828588576
4	31400	65.6	1.3097828588576
4	31448	65.7	1.3097828588576
4	31496	65.8	1.3097828588576
4	31544	65.9	1.3097828588576
4	31592	66	1.3097828588576
4	31640	66.1	1.3097828588576
4	31688	66.2	1.3097828588576
4	31736	66.3	1.3097828588576
4	31784	66.4	1.3097828588576
4	31832	66.5	1.3097828588576
4	31880	66.6	1.3097828588576
4	31928	66.7	1.3097828588576
4	31976	66.8	1.3097828588576
4	32024	66.9	1.3097828588576
4	32072	67	1.3097828588576
4	32120	67.1	1.3097828588576
4	32168	67.2	1.3097828588576
4	32216	67.3	1.3097828588576
4	32264	67.4	1.3097828588576
4	32312	67.5	1.3097828588576
4	32360	67.6	1.3097828588576
4	32408	67.7	1.3097828588576
4	32456	67.8	1.3097828588576
4	32504	67.9	1.3097828588576
4	32552	68	1.3097828588576
4	32600	68.1	1.3097828588576
4	32648	68.2	1.3097828588576
4	32696	68.3	1.3097828588576
4	32744	68.4	1.3097828588576
4	32792	68.5	1.3097828588576
4	32840	68.6	1.3097828588576
4	32888	68.7	1.3097828588576
4	32936	68.8	1.3097828588576
4	32984	68.9	1.3097828588576
4	33032	69	1.3097828588576
4	33080	69.1	1.3097828588576
4	33128	69.2	1.3097828588576
4	33176	69.3	1.3097828588576
4	33224	69.4	1.3097828588576
4	33272	69.5	1.3097828588576
4	33320	69.6	1.3097828588576
4	33368	69.7	1.3097828588576
4	33416	69.8	1.3097828588576
4	33464	69.9	1.3097828588576
4	33512	70	1.3097828588576
4	33560	70.1	1.3097828588576
4	33608	70.2	1.3097828588576
4	33656	70.3	1.3097828588576
4	33704	70.4	1.3097828588576
4	33752	70.5	1.3097828588576
4	33800	70.6	1.3097828588576
4	33848	70.7	1.3097828588576
4	33896	70.8	1.3097828588576
4	33944	70.9	1.3097828588576
4	33992	71	1.3097828588576
4	34040	71.1	1.3097828588576
4	34088	71.2	1.3097828588576
4	34136	71.3	1.3097828588576
4	34184	71.4	1.3097828588576
4	34232	71.5	1.3097828588576
4	34280	71.6	1.3097828588576
4	34328	71.7	1.3097828588576
4	34376	71.8	1.3097828588576
4	34424	71.9	1.3097828588576
4	34472	72	1.3097828588576
4	34520	72.1	1.3097828588576
4	34568	72.2	1.3097828588576
4	34616	72.3	1.3097828588576
4	34664	72.4	1.3097828588576
4	34712	72.5	1.3097828588576
4	34760	72.6	1.3097828588576
4	34808	72.7	1.3097828588576
4	34856	72.8	1.3097828588576
4	34904	72.9	1.3097828588576
4	34952	73	1.3097828588576
4	35000	73.1	1.3097828588576
4	35048	73.2	1.3097828588576
4	35096	73.3	1.3097828588576
4	35144	73.4	1.3097828588576
4	35192	73.5	1.3097828588576
4	35240	73.6	1.3097828588576
4	35288	73.7	1.3097828588576
4	35336	73.8	1.3097828588576
4	35384	73.9	1.3097828588576
4	35432	74	1.3097828588576
4	35480	74.1	1.3097828588576
4	35528	74.2	1.3097828588576
4	35576	74.3	1.3097828588576
4	35624	74.4	1.3097828588576
4	35672	74.5	1.3097828588576
4	35720	74.6	1.3097828588576
4	35768	74.7	1.3097828588576
4	35816	74.8	1.3097828588576
4	35864	74.9	1.3097828588576
4	35912	75	1.3097828588576
4	35960	75.1	1.3097828588576
4	36008	75.2	1.3097828588576
4	36056	75.3	1.3097828588576
4	36104	75.4	1.3097828588576
4	36152	75.5	1.3097828588576
4	36200	75.6	1.3097828588576
4	36248	75.7	1.3097828588576
4	36296	75.8	1.3097828588576
4	36344	75.9	1.3097828588576
4	36392	76	1.3097828588576
4	36440	76.1	1.3097828588576
4	36488	76.2	1.3097828588576
4	36536	76.3	1.3097828588576
4	36584	76.4	1.3097828588576
4	36632	76.5	1.3097828588576
4	36680	76.6	1.3097828588576
4	36728	76.7	1.3097828588576
4	36776	76.8	1.3097828588576
4	36824	76.9	1.3097828588576
4	36872	77	1.3097828588576
4	36920	77.1	1.3097828588576
4	36968	77.2	1.3097828588576
4	37016	77.3	1.3097828588576
4	37064	77.4	1.3097828588576
4	37112	77.5	1.3097828588576
4	37160	77.6	1.3097828588576
4	37208	77.7	1.3097828588576
4	37256	77.8	1.3097828588576
4	37304	77.9	1.3097828588576
4	37352	78	1.3097828588576
4	37400	78.1	1.3097828588576
4	37448	78.2	1.3097828588576
4	37496	78.3	1.3097828588576
4	37544	78.4	1.3097828588576
4	37592	78.5	1.3097828588576
4	37640	78.6	1.3097828588576
4	37688	78.7	1.3097828588576
4	37736	78.8	1.3097828588576
4	37784	78.9	1.3097828588576
4	37832	79	1.3097828588576
4	37880	79.1	1.3097828588576
4	37928	79.2	1.3097828588576
4	37976	79.3	1.3097828588576
4	38024	79.4	1.3097828588576
4	38072	79.5	1.3097828588576
4	38120	79.6	1.3097828588576
4	38168	79.7	1.3097828588576
4	38216	79.8	1.3097828588576
4	38264	79.9	1.3097828588576
4	38312	80	1.3097828588576
4	38360	80.1	1.3097828588576
4	38408	80.2	1.3097828588576
4	38456	80.3	1.3097828588576
4	38504	80.4	1.3097828588576
4	38552	80.5	1.3097828588576
4	38600	80.6	1.3097828588576
4	38648	80.7	1.3097828588576
4	38696	80.8	1.3097828588576
4	38744	80.9	1.3097828588576
4	38792	81	1.3097828588576
4	38840	81.1	1.3097828588576
4	38888	81.2	1.3097828588576
4	38936	81.3	1.3097828588576
4	38984	81.4	1.3097828588576
4	39032	81.5	1.3097828588576
4	39080	81.6	1.3097828588576
4	39128	81.7	1.3097828588576
4	39176	81.8	1.3097828588576
4	39224	81.9	1.3097828588576
4	39272	82	1.3097828588576
4	39320	82.1	1.3097828588576
4	39368	82.2	1.3097828588576
4	39416	82.3	1.3097828588576
4	39464	82.4	1.3097828588576
4	39512	82.5	1.3097828588576
4	39560	82.6	1.3097828588576
4	39608	82.7	1.3097828588576
4	39656	82.8	1.3097828588576
4	39704	82.9	1.3097828588576
4	39752	83	1.3097828588576
4	39800	83.1	1.3097828588576
4	39848	83.2	1.3097828588576
4	39896	83.3	1.3097828588576
4	39944	83.4	1.3097828588576
4	39992	83.5	1.3097828588576
4	40040	83.6	1.3097828588576
4	40088	83.7	1.3097828588576
4	40136	83.8	1.3097828588576
4	40184	83.9	1.3097828588576
4	40232	84	1.3097828588576
4	40280	84.1	1.3097828588576
4	40328	84.2	1.3097828588576
4	40376	84.3	1.3097828588576
4	40424	84.4	1.3097828588576
4	40472	84.5	1.3097828588576
4	40520	84.6	1.3097828588576
4	40568	84.7	1.3097828588576
4	40616	84.8	1.3097828588576
4	40664	84.9	1.3097828588576
4	40712	85	1.3097828588576
4	40760	85.1	1.3097828588576
4	40808	85.2	1.3097828588576
4	40856	85.3	1.3097828588576
4	40904	85.4	1.3097828588576
4	40952	85.5	1.3097828588576
4	41000	85.6	1.3097828588576
4	41048	85.7	1.3097828588576
4	41096	85.8	1.3097828588576
4	41144	85.9	1.3097828588576
4	41192	86	1.3097828588576
4	41240	86.1	1.3097828588576
4	41288	86.2	1.3097828588576
4	41336	86.3	1.3097828588576
4	41384	86.4	1.3097828588576
4	41432	86.5	1.3097828588576
4	41480	86.6	1.3097828588576
4	41528	86.7	1.3097828588576
4	41576	86.8	1.3097828588576
4	41624	86.9	1.3097828588576
4	41672	87	1.3097828588576
4	41720	87.1	1.3097828588576
4	41768	87.2	1.3097828588576
4	41816	87.3	1.3097828588576
4	41864	87.4	1.3097828588576
4	41912	87.5	1.3097828588576
4	41960	87.6	1.3097828588576
4	42008	87.7	1.3097828588576
4	42056	87.8	1.3097828588576
4	42104	87.9	1.3097828588576
4	42152	88	1.3097828588576
4	42200	88.1	1.3097828588576
4	42248	88.2	1.3097828588576
4	42296	88.3	1.3097828588576
4	42344	88.4	1.3097828588576
4	42392	88.5	1.3097828588576
4	42440	88.6	1.3097828588576
4	42488	88.7	1.3097828588576
4	42536	88.8	1.3097828588576
4	42584	88.9	1.3097828588576
4	42632	89	1.3097828588576
4	42680	89.1	1.3097828588576
4	42728	89.2	1.3097828588576
4	42776	89.3	1.3097828588576
4	42824	89.4	1.3097828588576
4	42872	89.5	1.3097828588576
4	42920	89.6	1.3097828588576
4	42968	89.7	1.3097828588576
4	43016	89.8	1.3097828588576
4	43064	89.9	1.3097828588576
4	43112	90	1.3097828588576
4	43160	90.1	1.3097828588576
4	43208	90.2	1.3097828588576
4	43256	90.3	1.3097828588576
4	43304	90.4	1.3097828588576
4	43352	90.5	1.3097828588576
4	43400	90.6	1.3097828588576
4	43448	90.7	1.3097828588576
4	43496	90.8	1.3097828588576
4	43544	90.9	1.3097828588576
4	43592	91	1.3097828588576
4	43640	91.1	1.3097828588576
4	43688	91.2	1.3097828588576
4	43736	91.3	1.3097828588576
4	43784	91.4	1.3097828588576
4	43832	91.5	1.3097828588576
4	43880	91.6	1.3097828588576
4	43928	91.7	1.3097828588576
4	43976	91.8	1.3097828588576
4	44024	91.9	1.3097828588576
4	44072	92	1.3097828588576
4	44120	92.1	1.3097828588576
4	44168	92.2	1.3097828588576
4	44216	92.3	1.3097828588576
4	44264	92.4	1.3097828588576
4	44312	92.5	1.3097828588576
4	44360	92.6	1.3097828588576
4	44408	92.7	1.3097828588576
4	44456	92.8	1.3097828588576
4	44504	92.9	1.3097828588576
4	44552	93	1.3097828588576
4	44600	93.1	1.3097828588576
4	44648	93.2	1.3097828588576
4	44696	93.3	1.3097828588576
4	44744	93.4	1.3097828588576
4	44792	93.5	1.3097828588576
4	44840	93.6	1.3097828588576
4	44888	93.7	1.3097828588576
4	44936	93.8	1.3097828588576
4	44984	93.9	1.3097828588576
4	45032	94	1.3097828588576
4	45080	94.1	1.3097828588576
4	45128	94.2	1.3097828588576
4	45176	94.3	1.3097828588576
4	45224	94.4	1.3097828588576
4	45272	94.5	1.3097828588576
4	45320	94.6	1.3097828588576
4	45368	94.7	1.3097828588576
4	45416	94.8	1.3097828588576
4	45464	94.9	1.3097828588576
4	45512	95	1.3097828588576
4	45560	95.1	1.3097828588576
4	45608	95.2	1.3097828588576
4	45656	95.3	1.3097828588576
4	45704	95.4	1.3097828588576
4	45752	95.5	1.3097828588576
4	45800	95.6	1.3097828588576
4	45848	95.7	1.3097828588576
4	45896	95.8	1.3097828588576
4	45944	95.9	1.3097828588576
4	45992	96	1.3097828588576
4	46040	96.1	1.3097828588576
4	46088	96.2	1.3097828588576
4	46136	96.3	1.3097828588576
4	46184	96.4	1.3097828588576
4	46232	96.5	1.3097828588576
4	46280	96.6	1.3097828588576
4	46328	96.7	1.3097828588576
4	46376	96.8	1.3097828588576
4	46424	96.9	1.3097828588576
4	46472	97	1.3097828588576
4	46520	97.1	1.3097828588576
4	46568	97.2	1.3097828588576
4	46616	97.3	1.3097828588576
4	46664	97.4	1.3097828588576
4	46712	97.5	1.3097828588576
4	46760	97.6	1.3097828588576
4	46808	97.7	1.3097828588576
4	46856	97.8	1.3097828588576
4	46904	97.9	1.3097828588576
4	46952	98	1.3097828588576
4	47000	98.1	1.3097828588576
4	47048	98.2	1.3097828588576
4	47096	98.3	1.3097828588576
4	47144	98.4	1.3097828588576
4	47192	98.5	1.3097828588576
4	47240	98.6	1.3097828588576
4	47288	98.7	1.3097828588576
4	47336	98.8	1.3097828588576
4	47384	98.9	1.3097828588576
4	47432	99	1.3097828588576
4	47480	99.1	1.3097828588576
4	47528	99.2	1.3097828588576
4	47576	99.3	1.3097828588576
4	47624	99.4	1.3097828588576
4	47672	99.5	1.3097828588576
4	47720	99.6	1.3097828588576
4	47768	99.7	1.3097828588576
4	47816	99.8	1.3097828588576
4	47864	99.9	1.3097828588576
4	47912	100	1.3097828588576
4	47960	100.1	1.3097828588576
4	48008	100.2	1.3097828588576
4	48056	100.3	1.3097828588576
4	48104	100.4	1.3097828588576
4	48152	100.5	1.3097828588576
4	48200	100.6	1.3097828588576
4	48248	100.7	1.3097828588576
4	48296	100.8	1.3097828588576
4	48344	100.9	1.3097828588576
4	48392	101	1.3097828588576
4	48440	101.1	1.3097828588576
4	48488	101.2	1.3097828588576
4	48536	101.3	1.3097828588576
4	48584	101.4	1.3097828588576
4	48632	101.5	1.3097828588576
4	48680	101.6	1.3097828588576
4	48728	101.7	1.3097828588576
4	48776	101.8	1.3097828588576
4	48824	101.9	1.3097828588576
4	48872	102	1.3097828588576
4	48920	102.1	1.3097828588576
4	48968	102.2	1.3097828588576
4	49016	102.3	1.3097828588576
4	49064	102.4	1.3097828588576
4	49112	102.5	1.3097828588576
4	49160	102.6	1.3097828588576
4	49208	102.7	1.3097828588576
4	49256	102.8	1.3097828588576
4	49304	102.9	1.3097828588576
4	49352	103	1.3097828588576
4	49400	103.1	1.3097828588576
4	49448	103.2	1.3097828588576
4	49496	103.3	1.3097828588576
4	49544	103.4	1.3097828588576
4	49592	103.5	1.3097828588576
4	49640	103.6	1.3097828588576
4	49688	103.7	1.3097828588576
4	49736	103.8	1.3097828588576
4	49784	103.9	1.3097828588576
4	49832	104	1.3097828588576
4	49880	104.1	1.3097828588576
4	49928	104.2	1.3097828588576
4	49976	104.3	1.3097828588576
4	50024	104.4	1.3097828588576
4	50072	104.5	1.3097828588576
4	50120	104.6	1.3097828588576
4	50168	104.7	1.3097828588576
4	50216	104.8	1.3097828588576
4	50264	104.9	1.3097828588576
4	50312	105	1.3097828588576
4	50360	105.1	1.3097828588576
4	50408	105.2	1.3097828588576
4	50456	105.3	1.3097828588576
4	50504	105.4	1.3097828588576
4	50552	105.5	1.3097828588576
4	50600	105.6	1.3097828588576
4	50648	105.7	1.3097828588576
4	50696	105.8	1.3097828588576
4	50744	105.9	1.3097828588576
4	50792	106	1.3097828588576
4	50840	106.1	1.3097828588576
4	50888	106.2	1.3097828588576
4	50936	106.3	1.3097828588576
4	50984	106.4	1.3097828588576
4	51032	106.5	1.3097828588576
4	51080	106.6	1.3097828588576
4	51128	106.7	1.3097828588576
4	51176	106.8	1.3097828588576
4	51224	106.9	1.3097828588576
4	51272	107	1.3097828588576
4	51320	107.1	1.3097828588576
4	51368	107.2	1.3097828588576
4	51416	107.3	1.3097828588576
4	51464	107.4	1.3097828588576
4	51512	107.5	1.3097828588576
4	51560	107.6	1.3097828588576
4	51608	107.7	1.3097828588576
4	51656	107.8	1.3097828588576
4	51704	107.9	1.3097828588576
4	51752	108	1.3097828588576
4	51800	108.1	1.3097828588576
4	51848	108.2	1.3097828588576
4	51896	108.3	1.3097828588576
4	51944	108.4	1.3097828588576
4	51992	108.5	1.3097828588576
4	52040	108.6	1.3097828588576
4	52088	108.7	1.3097828588576
4	52136	108.8	1.3097828588576
4	52184	108.9	1.3097828588576
4	52232	109	1.3097828588576
4	52280	109.1	1.3097828588576
4	52328	109.2	1.3097828588576
4	52376	109.3	1.3097828588576
4	52424	109.4	1.3097828588576
4	52472	109.5	1.3097828588576
4	52520	109.6	1.3097828588576
4	52568	109.7	1.3097828588576
4	52616	109.8	1.3097828588576
4	52664	109.9	1.3097828588576
4	52712	110	1.3097828588576
4	52760	110.1	1.3097828588576
4	52808	110.2	1.3097828588576
4	52856	110.3	1.3097828588576
4	52904	110.4	1.3097828588576
4	52952	110.5	1.3097828588576
4	53000	110.6	1.3097828588576
4	53048	110.7	1.3097828588576
4	53096	110.8	1.3097828588576
4	53144	110.9	1.3097828588576
4	53192	111	1.3097828588576
4	53240	111.1	1.3097828588576
4	53288	111.2	1.3097828588576
4	53336	111.3	1.3097828588576
4	53384	111.4	1.3097828588576
4	53432	111.5	1.3097828588576
4	53480	111.6	1.3097828588576
4	53528	111.7	1.3097828588576
4	53576	111.8	1.3097828588576
4	53624	111.9	1.3097828588576
4	53672	112	1.3097828588576
4	53720	112.1	1.3097828588576
4	53768	112.2	1.3097828588576
4	53816	112.3	1.3097828588576
4	53864	112.4	1.3097828588576
4	53912	112.5	1.3097828588576
4	53960	112.6	1.3097828588576
4	54008	112.7	1.3097828588576
4	54056	112.8	1.3097828588576
4	54104	112.9	1.3097828588576
4	54152	113	1.3097828588576
4	54200	113.1	1.3097828588576
4	54248	113.2	1.3097828588576
4	54296	113.3	1.3097828588576
4	54344	113.4	1.3097828588576
4	54392	113.5	1.3097828588576
4	54440	113.6	1.3097828588576
4	54488	113.7	1.3097828588576
4	54536	113.8	1.3097828588576
4	54584	113.9	1.3097828588576
4	54632	114	1.3097828588576
4	54680	114.1	1.3097828588576
4	54728	114.2	1.3097828588576
4	54776	114.3	1.3097828588576
4	54824	114.4	1.3097828588576
4	54872	114.5	1.3097828588576
4	54920	114.6	1.3097828588576
4	54968	114.7	1.3097828588576
4	55016	114.8	1.3097828588576
4	55064	114.9	1.3097828588576
4	55112	115	1.3097828588576
4	55160	115.1	1.3097828588576
4	55208	115.2	1.3097828588576
4	55256	115.3	1.3097828588576
4	55304	115.4	1.3097828588576
4	55352	115.5	1.3097828588576
4	55400	115.6	1.3097828588576
4	55448	115.7	1.3097828588576
4	55496	115.8	1.3097828588576
4	55544	115.9	1.3097828588576
4	55592	116	1.3097828588576
4	55640	116.1	1.3097828588576
4	55688	116.2	1.3097828588576
4	55736	116.3	1.3097828588576
4	55784	116.4	1.3097828588576
4	55832	116.5	1.3097828588576
4	55880	116.6	1.3097828588576
4	55928	116.7	1.3097828588576
4	55976	116.8	1.3097828588576
4	56024	116.9	1.3097828588576
4	56072	117	1.3097828588576
4	56120	117.1	1.3097828588576
4	56168	117.2	1.3097828588576
4	56216	117.3	1.3097828588576
4	56264	117.4	1.3097828588576
4	56312	117.5	1.3097828588576
4	56360	117.6	1.3097828588576
4	56408	117.7	1.3097828588576
4	56456	117.8	1.3097828588576
4	56504	117.9	1.3097828588576
4	56552	118	1.3097828588576
4	56600	118.1	1.3097828588576
4	56648	118.2	1.3097828588576
4	56696	118.3	1.3097828588576
4	56744	118.4	1.3097828588576
4	56792	118.5	1.3097828588576
4	56840	118.6	1.3097828588576
4	56888	118.7	1.3097828588576
4	56936	118.8	1.3097828588576
4	56984	118.9	1.3097828588576
4	57032	119	1.3097828588576
4	57080	119.1	1.3097828588576
4	57128	119.2	1.3097828588576
4	57176	119.3	1.3097828588576
4	57224	119.4	1.3097828588576
4	57272	119.5	1.3097828588576
4	57320	119.6	1.3097828588576
4	57368	119.7	1.3097828588576
4	57416	119.8	1.3097828588576
4	57464	119.9	1.3097828588576
4	57512	120	1.3097828588576
4	57560	120.1	1.3097828588576
4	57608	120.2	1.3097828588576
4	57656	120.3	1.3097828588576
4	57704	120.4	1.3097828588576
4	57752	120.5	1.3097828588576
4	57800	120.6	1.3097828588576
4	57848	120.7	1.3097828588576
4	57896	120.8	1.3097828588576
4	57944	120.9	1.3097828588576
4	57992	121	1.3097828588576
4	58040	121.1	1.3097828588576
4	58088	121.2	1.3097828588576
4	58136	121.3	1.3097828588576
4	58184	121.4	1.3097828588576
4	58232	121.5	1.3097828588576
4	58280	121.6	1.3097828588576
4	58328	121.7	1.3097828588576
4	58376	121.8	1.3097828588576
4	58424	121.9	1.3097828588576
4	58472	122	1.3097828588576
4	58520	122.1	1.3097828588576
4	58568	122.2	1.3097828588576
4	58616	122.3	1.3097828588576
4	58664	122.4	1.3097828588576
4	58712	122.5	1.3097828588576
4	58760	122.6	1.3097828588576
4	58808	122.7	1.3097828588576
4	58856	122.8	1.3097828588576
4	58904	122.9	1.3097828588576
4	58952	123	1.3097828588576
4	59000	123.1	1.3097828588576
4	59048	123.2	1.3097828588576
4	59096	123.3	1.3097828588576
4	59144	123.4	1.3097828588576
4	59192	123.5	1.3097828588576
4	59240	123.6	1.3097828588576
4	59288	123.7	1.3097828588576
4	59336	123.8	1.3097828588576
4	59384	123.9	1.3097828588576
4	59432	124	1.3097828588576
4	59480	124.1	1.3097828588576
4	59528	124.2	1.3097828588576
4	59576	124.3	1.3097828588576
4	59624	124.4	1.3097828588576
4	59672	124.5	1.3097828588576
4	59720	124.6	1.3097828588576
4	59768	124.7	1.3097828588576
4	59816	124.8	1.3097828588576
4	59864	124.9	1.3097828588576
4	59912	125	1.3097828588576
4	59960	125.1	1.3097828588576
4	60008	125.2	1.3097828588576
4	60056	125.3	1.3097828588576
4	60104	125.4	1.3097828588576
4	60152	125.5	1.3097828588576
4	60200	125.6	1.3097828588576
4	60248	125.7	1.3097828588576
4	60296	125.8	1.3097828588576
4	60344	125.9	1.3097828588576
4	60392	126	1.3097828588576
4	60440	126.1	1.3097828588576
4	60488	126.2	1.3097828588576
4	60536	126.3	1.3097828588576
4	60584	126.4	1.3097828588576
4	60632	126.5	1.3097828588576
4	60680	126.6	1.3097828588576
4	60728	126.7	1.3097828588576
4	60776	126.8	1.3097828588576
4	60824	126.9	1.3097828588576
4	60872	127	1.3097828588576
4	60920	127.1	1.3097828588576
4	60968	127.2	1.3097828588576
4	61016	127.3	1.3097828588576
4	61064	127.4	1.3097828588576
4	61112	127.5	1.3097828588576
4	61160	127.6	1.3097828588576
4	61208	127.7	1.3097828588576
4	61256	127.8	1.3097828588576
4	61304	127.9	1.3097828588576
4	61352	128	1.3097828588576
4	61400	128.1	1.3097828588576
4	61448	128.2	1.3097828588576
4	61496	128.3	1.3097828588576
4	61544	128.4	1.3097828588576
4	61592	128.5	1.3097828588576
4	61640	128.6	1.3097828588576
4	61688	128.7	1.3097828588576
4	61736	128.8	1.3097828588576
4	61784	128.9	1.3097828588576
4	61832	129	1.3097828588576
4	61880	129.1	1.3097828588576
4	61928	129.2	1.3097828588576
4	61976	129.3	1.3097828588576
4	62024	129.4	1.3097828588576
4	62072	129.5	1.3097828588576
4	62120	129.6	1.3097828588576
4	62168	129.7	1.3097828588576
4	62216	129.8	1.3097828588576
4	62264	129.9	1.3097828588576
4	62312	130	1.3097828588576
4	62360	130.1	1.3097828588576
4	62408	130.2	1.3097828588576
4	62456	130.3	1.3097828588576
4	62504	130.4	1.3097828588576
4	62552	130.5	1.3097828588576
4	62600	130.6	1.3097828588576
4	62648	130.7	1.3097828588576
4	62696	130.8	1.3097828588576
4	62744	130.9	1.3097828588576
4	62792	131	1.3097828588576
4	62840	131.1	1.3097828588576
4	62888	131.2	1.3097828588576
4	62936	131.3	1.3097828588576
4	62984	131.4	1.3097828588576
4	63032	131.5	1.3097828588576
4	63080	131.6	1.3097828588576
4	63128	131.7	1.3097828588576
4	63176	131.8	1.3097828588576
4	63224	131.9	1.3097828588576
4	63272	132	1.3097828588576
4	63320	132.1	1.3097828588576
4	63368	132.2	1.3097828588576
4	63416	132.3	1.3097828588576
4	63464	132.4	1.3097828588576
4	63512	132.5	1.3097828588576
4	63560	132.6	1.3097828588576
4	63608	132.7	1.3097828588576
4	63656	132.8	1.3097828588576
4	63704	132.9	1.3097828588576
4	63752	133	1.3097828588576
4	63800	133.1	1.3097828588576
4	63848	133.2	1.3097828588576
4	63896	133.3	1.3097828588576
4	63944	133.4	1.3097828588576
4	63992	133.5	1.3097828588576
4	64040	133.6	1.3097828588576
4	64088	133.7	1.3097828588576
4	64136	133.8	1.3097828588576
4	64184	133.9	1.3097828588576
4	64232	134	1.3097828588576
4	64280	134.1	1.3097828588576
4	64328	134.2	1.3097828588576
4	64376	134.3	1.3097828588576
4	64424	134.4	1.3097828588576
4	64472	134.5	1.3097828588576
4	64520	134.6	1.3097828588576
4	64568	134.7	1.3097828588576
4	64616	134.8	1.3097828588576
4	64664	134.9	1.3097828588576
4	64712	135	1.3097828588576
4	64760	135.1	1.3097828588576
4	64808	135.2	1.3097828588576
4	64856	135.3	1.3097828588576
4	64904	135.4	1.3097828588576
4	64952	135.5	1.3097828588576
4	65000	135.6	1.3097828588576
4	65048	135.7	1.3097828588576
4	65096	135.8	1.3097828588576
4	65144	135.9	1.3097828588576
4	65192	136	1.3097828588576
4	65240	136.1	1.3097828588576
4	65288	136.2	1.3097828588576
4	65336	136.3	1.3097828588576
4	65384	136.4	1.3097828588576
4	65432	136.5	1.3097828588576
4	65480	136.6	1.3097828588576
4	65528	136.7	1.3097828588576
4	65576	136.8	1.3097828588576
4	65624	136.9	1.3097828588576
4	65672	137	1.3097828588576
4	65720	137.1	1.3097828588576
4	65768	137.2	1.3097828588576
4	65816	137.3	1.3097828588576
4	65864	137.4	1.3097828588576
4	65912	137.5	1.3097828588576
4	65960	137.6	1.3097828588576
4	66008	137.7	1.3097828588576
4	66056	137.8	1.3097828588576
4	66104	137.9	1.3097828588576
4	66152	138	1.3097828588576
4	66200	138.1	1.3097828588576
4	66248	138.2	1.3097828588576
4	66296	138.3	1.3097828588576
4	66344	138.4	1.3097828588576
4	66392	138.5	1.3097828588576
4	66440	138.6	1.3097828588576
4	66488	138.7	1.3097828588576
4	66536	138.8	1.3097828588576
4	66584	138.9	1.3097828588576
4	66632	139	1.3097828588576
4	66680	139.1	1.3097828588576
4	66728	139.2	1.3097828588576
4	66776	139.3	1.3097828588576
4	66824	139.4	1.3097828588576
4	66872	139.5	1.3097828588576
4	66920	139.6	1.3097828588576
4	66968	139.7	1.3097828588576
4	67016	139.8	1.3097828588576
4	67064	139.9	1.3097828588576
4	67112	140	1.3097828588576
4	67160	140.1	1.3097828588576
4	67208	140.2	1.3097828588576
4	67256	140.3	1.3097828588576
4	67304	140.4	1.3097828588576
4	67352	140.5	1.3097828588576
4	67400	140.6	1.3097828588576
4	67448	140.7	1.3097828588576
4	67496	140.8	1.3097828588576
4	67544	140.9	1.3097828588576
4	67592	141	1.3097828588576
4	67640	141.1	1.3097828588576
4	67688	141.2	1.3097828588576
4	67736	141.3	1.3097828588576
4	67784	141.4	1.3097828588576
4	67832	141.5	1.3097828588576
4	67880	141.6	1.3097828588576
4	67928	141.7	1.3097828588576
4	67976	141.8	1.3097828588576
4	68024	141.9	1.3097828588576
4	68072	142	1.3097828588576
4	68120	142.1	1.3097828588576
4	68168	142.2	1.3097828588576
4	68216	142.3	1.3097828588576
4	68264	142.4	1.3097828588576
4	68312	142.5	1.3097828588576
4	68360	142.6	1.3097828588576
4	68408	142.7	1.3097828588576
4	68456	142.8	1.3097828588576
4	68504	142.9	1.3097828588576
4	68552	143	1.3097828588576
4	68600	143.1	1.3097828588576
4	68648	143.2	1.3097828588576
4	68696	143.3	1.3097828588576
4	68744	143.4	1.3097828588576
4	68792	143.5	1.3097828588576
4	68840	143.6	1.3097828588576
4	68888	143.7	1.3097828588576
4	68936	143.8	1.3097828588576
4	68984	143.9	1.3097828588576
4	69032	144	1.3097828588576
4	69080	144.1	1.3097828588576
4	69128	144.2	1.3097828588576
4	69176	144.3	1.3097828588576
4	69224	144.4	1.3097828588576
4	69272	144.5	1.3097828588576
4	69320	144.6	1.3097828588576
4	69368	144.7	1.3097828588576
4	69416	144.8	1.3097828588576
4	69464	144.9	1.3097828588576
4	69512	145	1.3097828588576
4	69560	145.1	1.3097828588576
4	69608	145.2	1.3097828588576
4	69656	145.3	1.3097828588576
4	69704	145.4	1.3097828588576
4	69752	145.5	1.3097828588576
4	69800	145.6	1.3097828588576
4	69848	145.7	1.3097828588576
4	69896	145.8	1.3097828588576
4	69944	145.9	1.3097828588576
4	69992	146	1.3097828588576
4	70040	146.1	1.3097828588576
4	70088	146.2	1.3097828588576
4	70136	146.3	1.3097828588576
4	70184	146.4	1.3097828588576
4	70232	146.5	1.3097828588576
4	70280	146.6	1.3097828588576
4	70328	146.7	1.3097828588576
4	70376	146.8	1.3097828588576
4	70424	146.9	1.3097828588576
4	70472	147	1.3097828588576
4	70520	147.1	1.3097828588576
4	70568	147.2	1.3097828588576
4	70616	147.3	1.3097828588576
4	70664	147.4	1.3097828588576
4	70712	147.5	1.3097828588576
4	70760	147.6	1.3097828588576
4	70808	147.7	1.3097828588576
4	70856	147.8	1.3097828588576
4	70904	147.9	1.3097828588576
4	70952	148	1.3097828588576
4	71000	148.1	1.3097828588576
4	71048	148.2	1.3097828588576
4	71096	148.3	1.3097828588576
4	71144	148.4	1.3097828588576
4	71192	148.5	1.3097828588576
4	71240	148.6	1.3097828588576
4	71288	148.7	1.3097828588576
4	71336	148.8	1.3097828588576
4	71384	148.9	1.3097828588576
4	71432	149	1.3097828588576
4	71480	149.1	1.3097828588576
4	71528	149.2	1.3097828588576
4	71576	149.3	1.3097828588576
4	71624	149.4	1.3097828588576
4	71672	149.5	1.3097828588576
4	71720	149.6	1.3097828588576
4	71768	149.7	1.3097828588576
4	71816	149.8	1.3097828588576
4	71864	149.9	1.3097828588576
4	71912	150	1.3097828588576
4	71960	150.1	1.3097828588576
4	72008	150.2	1.3097828588576
4	72056	150.3	1.3097828588576
4	72104	150.4	1.3097828588576
4	72152	150.5	1.3097828588576
4	72200	150.6	1.3097828588576
4	72248	150.7	1.3097828588576
4	72296	150.8	1.3097828588576
4	72344	150.9	1.3097828588576
4	72392	151	1.3097828588576
4	72440	151.1	1.3097828588576
4	72488	151.2	1.3097828588576
4	72536	151.3	1.3097828588576
4	72584	151.4	1.3097828588576
4	72632	151.5	1.3097828588576
4	72680	151.6	1.3097828588576
4	72728	151.7	1.3097828588576
4	72776	151.8	1.3097828588576
4	72824	151.9	1.3097828588576
4	72872	152	1.3097828588576
4	72920	152.1	1.3097828588576
4	72968	152.2	1.3097828588576
4	73016	152.3	1.3097828588576
4	73064	152.4	1.3097828588576
4	73112	152.5	1.3097828588576
4	73160	152.6	1.3097828588576
4	73208	152.7	1.3097828588576
4	73256	152.8	1.3097828588576
4	73304	152.9	1.3097828588576
4	73352	153	1.3097828588576
4	73400	153.1	1.3097828588576
4	73448	153.2	1.3097828588576
4	73496	153.3	1.3097828588576
4	73544	153.4	1.3097828588576
4	73592	153.5	1.3097828588576
4	73640	153.6	1.3097828588576
4	73688	153.7	1.3097828588576
4	73736	153.8	1.3097828588576
4	73784	153.9	1.3097828588576
4	73832	154	1.3097828588576
4	73880	154.1	1.3097828588576
4	73928	154.2	1.3097828588576
4	73976	154.3	1.3097828588576
4	74024	154.4	1.3097828588576
4	74072	154.5	1.3097828588576
4	74120	154.6	1.3097828588576
4	74168	154.7	1.3097828588576
4	74216	154.8	1.3097828588576
4	74264	154.9	1.3097828588576
4	74312	155	1.3097828588576
4	74360	155.1	1.3097828588576
4	74408	155.2	1.3097828588576
4	74456	155.3	1.3097828588576
4	74504	155.4	1.3097828588576
4	74552	155.5	1.3097828588576
4	74600	155.6	1.3097828588576
4	74648	155.7	1.3097828588576
4	74696	155.8	1.3097828588576
4	74744	155.9	1.3097828588576
4	74792	156	1.3097828588576
4	74840	156.1	1.3097828588576
4	74888	156.2	1.3097828588576
4	74936	156.3	1.3097828588576
4	74984	156.4	1.3097828588576
4	75032	156.5	1.3097828588576
4	75080	156.6	1.3097828588576
4	75128	156.7	1.3097828588576
4	75176	156.8	1.3097828588576
4	75224	156.9	1.3097828588576
4	75272	157	1.3097828588576
4	75320	157.1	1.3097828588576
4	75368	157.2	1.3097828588576
4	75416	157.3	1.3097828588576
4	75464	157.4	1.3097828588576
4	75512	157.5	1.3097828588576
4	75560	157.6	1.3097828588576
4	75608	157.7	1.3097828588576
4	75656	157.8	1.3097828588576
4	75704	157.9	1.3097828588576
4	75752	158	1.3097828588576
4	75800	158.1	1.3097828588576
4	75848	158.2	1.3097828588576
4	75896	158.3	1.3097828588576
4	75944	158.4	1.3097828588576
4	75992	158.5	1.3097828588576
4	76040	158.6	1.3097828588576
4	76088	158.7	1.3097828588576
4	76136	158.8	1.3097828588576
4	76184	158.9	1.3097828588576
4	76232	159	1.3097828588576
4	76280	159.1	1.3097828588576
4	76328	159.2	1.3097828588576
4	76376	159.3	1.3097828588576
4	76424	159.4	1.3097828588576
4	76472	159.5	1.3097828588576
4	76520	159.6	1.3097828588576
4	76568	159.7	1.3097828588576
4	76616	159.8	1.3097828588576
4	76664	159.9	1.3097828588576
4	76712	160	1.3097828588576
4	76760	160.1	1.3097828588576
4	76808	160.2	1.3097828588576
4	76856	160.3	1.3097828588576
4	76904	160.4	1.3097828588576
4	76952	160.5	1.3097828588576
4	77000	160.6	1.3097828588576
4	77048	160.7	1.3097828588576
4	77096	160.8	1.3097828588576
4	77144	160.9	1.3097828588576
4	77192	161	1.3097828588576
4	77240	161.1	1.3097828588576
4	77288	161.2	1.3097828588576
4	77336	161.3	1.3097828588576
4	77384	161.4	1.3097828588576
4	77432	161.5	1.3097828588576
4	77480	161.6	1.3097828588576
4	77528	161.7	1.3097828588576
4	77576	161.8	1.3097828588576
4	77624	161.9	1.3097828588576
4	77672	162	1.3097828588576
4	77720	162.1	1.3097828588576
4	77768	162.2	1.3097828588576
4	77816	162.3	1.3097828588576
4	77864	162.4	1.3097828588576
4	77912	162.5	1.3097828588576
4	77960	162.6	1.3097828588576
4	78008	162.7	1.3097828588576
4	78056	162.8	1.3097828588576
4	78104	162.9	1.3097828588576
4	78152	163	1.3097828588576
4	78200	163.1	1.3097828588576
4	78248	163.2	1.3097828588576
4	78296	163.3	1.3097828588576
4	78344	163.4	1.3097828588576
4	78392	163.5	1.3097828588576
4	78440	163.6	1.3097828588576
4	78488	163.7	1.3097828588576
4	78536	163.8	1.3097828588576
4	78584	163.9	1.3097828588576
4	78632	164	1.3097828588576
4	78680	164.1	1.3097828588576
4	78728	164.2	1.3097828588576
4	78776	164.3	1.3097828588576
4	78824	164.4	1.3097828588576
4	78872	164.5	1.3097828588576
4	78920	164.6	1.3097828588576
4	78968	164.7	1.3097828588576
4	79016	164.8	1.3097828588576
4	79064	164.9	1.3097828588576
4	79112	165	1.3097828588576
4	79160	165.1	1.3097828588576
4	79208	165.2	1.3097828588576
4	79256	165.3	1.3097828588576
4	79304	165.4	1.3097828588576
4	79352	165.5	1.3097828588576
4	79400	165.6	1.3097828588576
4	79448	165.7	1.3097828588576
4	79496	165.8	1.3097828588576
4	79544	165.9	1.3097828588576
4	79592	166	1.3097828588576
4	79640	166.1	1.3097828588576
4	79688	166.2	1.3097828588576
4	79736	166.3	1.3097828588576
4	79784	166.4	1.3097828588576
4	79832	166.5	1.3097828588576
4	79880	166.6	1.3097828588576
4	79928	166.7	1.3097828588576
4	79976	166.8	1.3097828588576
4	80024	166.9	1.3097828588576
4	80072	167	1.3097828588576
4	80120	167.1	1.3097828588576
4	80168	167.2	1.3097828588576
4	80216	167.3	1.3097828588576
4	80264	167.4	1.3097828588576
4	80312	167.5	1.3097828588576
4	80360	167.6	1.3097828588576
4	80408	167.7	1.3097828588576
4	80456	167.8	1.3097828588576
4	80504	167.9	1.3097828588576
4	80552	168	1.3097828588576
4	80600	168.1	1.3097828588576
4	80648	168.2	1.3097828588576
4	80696	168.3	1.3097828588576
4	80744	168.4	1.3097828588576
4	80792	168.5	1.3097828588576
4	80840	168.6	1.3097828588576
4	80888	168.7	1.3097828588576
4	80936	168.8	1.3097828588576
4	80984	168.9	1.3097828588576
4	81032	169	1.3097828588576
4	81080	169.1	1.3097828588576
4	81128	169.2	1.3097828588576
4	81176	169.3	1.3097828588576
4	81224	169.4	1.3097828588576
4	81272	169.5	1.3097828588576
4	81320	169.6	1.3097828588576
4	81368	169.7	1.3097828588576
4	81416	169.8	1.3097828588576
4	81464	169.9	1.3097828588576
4	81512	170	1.3097828588576
4	81560	170.1	1.3097828588576
4	81608	170.2	1.3097828588576
4	81656	170.3	1.3097828588576
4	81704	170.4	1.3097828588576
4	81752	170.5	1.3097828588576
4	81800	170.6	1.3097828588576
4	81848	170.7	1.3097828588576
4	81896	170.8	1.3097828588576
4	81944	170.9	1.3097828588576
4	81992	171	1.3097828588576
4	82040	171.1	1.3097828588576
4	82088	171.2	1.3097828588576
4	82136	171.3	1.3097828588576
4	82184	171.4	1.3097828588576
4	82232	171.5	1.3097828588576
4	82280	171.6	1.3097828588576
4	82328	171.7	1.3097828588576
4	82376	171.8	1.3097828588576
4	82424	171.9	1.3097828588576
4	82472	172	1.3097828588576
4	82520	172.1	1.3097828588576
4	82568	172.2	1.3097828588576
4	82616	172.3	1.3097828588576
4	82664	172.4	1.3097828588576
4	82712	172.5	1.3097828588576
4	82760	172.6	1.3097828588576
4	82808	172.7	1.3097828588576
4	82856	172.8	1.3097828588576
4	82904	172.9	1.3097828588576
4	82952	173	1.3097828588576
4	83000	173.1	1.3097828588576
4	83048	173.2	1.3097828588576
4	83096	173.3	1.3097828588576
4	83144	173.4	1.3097828588576
4	83192	173.5	1.3097828588576
4	83240	173.6	1.3097828588576
4	83288	173.7	1.3097828588576
4	83336	173.8	1.3097828588576
4	83384	173.9	1.3097828588576
4	83432	174	1.3097828588576
4	83480	174.1	1.3097828588576
4	83527	174.2	1.3097828588576
4	83575	174.3	1.3097828588576
4	83623	174.4	1.3097828588576
4	83671	174.5	1.3097828588576
4	83719	174.6	1.3097828588576
4	83767	174.7	1.3097828588576
4	83815	174.8	1.3097828588576
4	83863	174.9	1.3097828588576
4	83911	175	1.3097828588576
4	83959	175.1	1.3097828588576
4	84007	175.2	1.3097828588576
4	84055	175.3	1.3097828588576
4	84103	175.4	1.3097828588576
4	84151	175.5	1.3097828588576
4	84199	175.6	1.3097828588576
4	84247	175.7	1.3097828588576
4	84295	175.8	1.3097828588576
4	84343	175.9	1.3097828588576
4	84391	176	1.3097828588576
4	84439	176.1	1.3097828588576
4	84472	176.2	1.3097828588576
4	84504	176.3	1.3097828588576
4	84551	176.4	1.3097828588576
4	84599	176.5	1.3097828588576
4	84646	176.6	1.3097828588576
4	84679	176.7	1.3097828588576
4	84727	176.8	1.3097828588576
4	84774	176.9	1.3097828588576
4	84807	177	1.3097828588576
4	84854	177.1	1.3097828588576
4	84902	177.2	1.3097828588576
4	84950	177.3	1.3097828588576
4	84998	177.4	1.3097828588576
4	85046	177.5	1.3097828588576
4	85094	177.6	1.3097828588576
4	85142	177.7	1.3097828588576
4	85190	177.8	1.3097828588576
4	85238	177.9	1.3097828588576
4	85286	178	1.3097828588576
4	85334	178.1	1.3097828588576
4	85382	178.2	1.3097828588576
4	85430	178.3	1.3097828588576
4	85478	178.4	1.3097828588576
4	85526	178.5	1.3097828588576
4	85574	178.6	1.3097828588576
4	85622	178.7	1.3097828588576
4	85670	178.8	1.3097828588576
4	85718	178.9	1.3097828588576
4	85766	179	1.3097828588576
4	85813	179.1	1.3097828588576
4	85861	179.2	1.3097828588576
4	85908	179.3	1.3097828588576
4	85956	179.4	1.3097828588576
4	86004	179.5	1.3097828588576
4	86052	179.6	1.3097828588576
4	86100	179.7	1.3097828588576
4	86148	179.8	1.3097828588576
4	86196	179.9	1.3097828588576
4	86243	180	1.3097828588576
4	86291	180.1	1.3097828588576
4	86339	180.2	1.3097828588576
4	86387	180.3	1.3097828588576
4	86435	180.4	1.3097828588576
4	86483	180.5	1.3097828588576
4	86531	180.6	1.3097828588576
4	86579	180.7	1.3097828588576
4	86627	180.8	1.3097828588576
4	86675	180.9	1.3097828588576
4	86708	181	1.3097828588576
4	86756	181.1	1.3097828588576
4	86804	181.2	1.3097828588576
4	86852	181.3	1.3097828588576
4	86900	181.4	1.3097828588576
4	86948	181.5	1.3097828588576
4	86996	181.6	1.3097828588576
4	87044	181.7	1.3097828588576
4	87092	181.8	1.3097828588576
4	87140	181.9	1.3097828588576
4	87188	182	1.3097828588576
4	87236	182.1	1.3097828588576
4	87284	182.2	1.3097828588576
4	87332	182.3	1.3097828588576
4	87380	182.4	1.3097828588576
4	87428	182.5	1.3097828588576
4	87476	182.6	1.3097828588576
4	87524	182.7	1.3097828588576
4	87572	182.8	1.3097828588576
4	87620	182.9	1.3097828588576
4	87668	183	1.3097828588576
4	87715	183.1	1.3097828588576
4	87763	183.2	1.3097828588576
4	87811	183.3	1.3097828588576
4	87844	183.4	1.3097828588576
4	87892	183.5	1.3097828588576
4	87940	183.6	1.3097828588576
4	87988	183.7	1.3097828588576
4	88036	183.8	1.3097828588576
4	88084	183.9	1.3097828588576
4	88132	184	1.3097828588576
4	88180	184.1	1.3097828588576
4	88228	184.2	1.3097828588576
4	88276	184.3	1.3097828588576
4	88324	184.4	1.3097828588576
4	88372	184.5	1.3097828588576
4	88420	184.6	1.3097828588576
4	88468	184.7	1.3097828588576
4	88501	184.8	1.3097828588576
4	88549	184.9	1.3097828588576
4	88597	185	1.3097828588576
4	88645	185.1	1.3097828588576
4	88693	185.2	1.3097828588576
4	88741	185.3	1.3097828588576
4	88789	185.4	1.3097828588576
4	88837	185.5	1.3097828588576
4	88885	185.6	1.3097828588576
4	88933	185.7	1.3097828588576
4	88981	185.8	1.3097828588576
4	89029	185.9	1.3097828588576
4	89077	186	1.3097828588576
4	89125	186.1	1.3097828588576
4	89173	186.2	1.3097828588576
4	89221	186.3	1.3097828588576
4	89269	186.4	1.3097828588576
4	89317	186.5	1.3097828588576
4	89365	186.6	1.3097828588576
4	89413	186.7	1.3097828588576
4	89461	186.8	1.3097828588576
4	89509	186.9	1.3097828588576
4	89557	187	1.3097828588576
4	89605	187.1	1.3097828588576
4	89653	187.2	1.3097828588576
4	89701	187.3	1.3097828588576
4	89749	187.4	1.3097828588576
4	89797	187.5	1.3097828588576
4	89845	187.6	1.3097828588576
4	89893	187.7	1.3097828588576
4	89941	187.8	1.3097828588576
4	89989	187.9	1.3097828588576
4	90037	188	1.3097828588576
4	90085	188.1	1.3097828588576
4	90132	188.2	1.3097828588576
4	90180	188.3	1.3097828588576
4	90228	188.4	1.3097828588576
4	90276	188.5	1.3097828588576
4	90324	188.6	1.3097828588576
4	90372	188.7	1.3097828588576
4	90420	188.8	1.3097828588576
4	90468	188.9	1.3097828588576
4	90516	189	1.3097828588576
4	90564	189.1	1.3097828588576
4	90612	189.2	1.3097828588576
4	90660	189.3	1.3097828588576
4	90708	189.4	1.3097828588576
4	90756	189.5	1.3097828588576
4	90804	189.6	1.3097828588576
4	90852	189.7	1.3097828588576
4	90900	189.8	1.3097828588576
4	90948	189.9	1.3097828588576
4	90996	190	1.3097828588576
4	91044	190.1	1.3097828588576
4	91092	190.2	1.3097828588576
4	91140	190.3	1.3097828588576
4	91173	190.4	1.3097828588576
4	91221	190.5	1.3097828588576
4	91269	190.6	1.3097828588576
4	91317	190.7	1.3097828588576
4	91365	190.8	1.3097828588576
4	91413	190.9	1.3097828588576
4	91461	191	1.3097828588576
4	91509	191.1	1.3097828588576
4	91557	191.2	1.3097828588576
4	91605	191.3	1.3097828588576
4	91653	191.4	1.3097828588576
4	91701	191.5	1.3097828588576
4	91749	191.6	1.3097828588576
4	91797	191.7	1.3097828588576
4	91845	191.8	1.3097828588576
4	91893	191.9	1.3097828588576
4	91941	192	1.3097828588576
4	91974	192.1	1.3097828588576
4	92022	192.2	1.3097828588576
4	92070	192.3	1.3097828588576
4	92118	192.4	1.3097828588576
4	92166	192.5	1.3097828588576
4	92214	192.6	1.3097828588576
4	92262	192.7	1.3097828588576
4	92310	192.8	1.3097828588576
4	92358	192.9	1.3097828588576
4	92406	193	1.3097828588576
4	92454	193.1	1.3097828588576
4	92502	193.2	1.3097828588576
4	92550	193.3	1.3097828588576
4	92598	193.4	1.3097828588576
4	92646	193.5	1.3097828588576
4	92694	193.6	1.3097828588576
4	92742	193.7	1.3097828588576
4	92790	193.8	1.3097828588576
4	92838	193.9	1.3097828588576
4	92886	194	1.3097828588576
4	92934	194.1	1.3097828588576
4	92982	194.2	1.3097828588576
4	93030	194.3	1.3097828588576
4	93078	194.4	1.3097828588576
4	93126	194.5	1.3097828588576
4	93174	194.6	1.3097828588576
4	93222	194.7	1.3097828588576
4	93270	194.8	1.3097828588576
4	93318	194.9	1.3097828588576
4	93366	195	1.3097828588576
4	93414	195.1	1.3097828588576
4	93462	195.2	1.3097828588576
4	93495	195.3	1.3097828588576
4	93543	195.4	1.3097828588576
4	93591	195.5	1.3097828588576
4	93639	195.6	1.3097828588576
4	93687	195.7	1.3097828588576
4	93735	195.8	1.3097828588576
4	93783	195.9	1.3097828588576
4	93831	196	1.3097828588576
4	93879	196.1	1.3097828588576
4	93927	196.2	1.3097828588576
4	93975	196.3	1.3097828588576
4	94023	196.4	1.3097828588576
4	94071	196.5	1.3097828588576
4	94104	196.6	1.3097828588576
4	94152	196.7	1.3097828588576
4	94200	196.8	1.3097828588576
4	94248	196.9	1.3097828588576
4	94296	197	1.3097828588576
4	94344	197.1	1.3097828588576
4	94392	197.2	1.3097828588576
4	94440	197.3	1.3097828588576
4	94488	197.4	1.3097828588576
4	94536	197.5	1.3097828588576
4	94584	197.6	1.3097828588576
4	94632	197.7	1.3097828588576
4	94680	197.8	1.3097828588576
4	94728	197.9	1.3097828588576
4	94761	198	1.3097828588576
4	94809	198.1	1.3097828588576
4	94857	198.2	1.3097828588576
4	94905	198.3	1.3097828588576
4	94953	198.4	1.3097828588576
4	95001	198.5	1.3097828588576
4	95049	198.6	1.3097828588576
4	95097	198.7	1.3097828588576
4	95145	198.8	1.3097828588576
4	95178	198.9	1.3097828588576
4	95226	199	1.3097828588576
4	95274	199.1	1.3097828588576
4	95322	199.2	1.3097828588576
4	95370	199.3	1.3097828588576
4	95418	199.4	1.3097828588576
4	95466	199.5	1.3097828588576
4	95514	199.6	1.3097828588576
4	95562	199.7	1.3097828588576
4	95610	199.8	1.3097828588576
4	95658	199.9	1.3097828588576
4	95706	200	1.3097828588576
4	95753	200.1	1.3097828588576
4	95801	200.2	1.3097828588576
4	95849	200.3	1.3097828588576
4	95882	200.4	1.3097828588576
4	95930	200.5	1.3097828588576
4	95978	200.6	1.3097828588576
4	96026	200.7	1.3097828588576
4	96074	200.8	1.3097828588576
4	96122	200.9	1.3097828588576
4	96170	201	1.3097828588576
4	96218	201.1	1.3097828588576
4	96266	201.2	1.3097828588576
4	96314	201.3	1.3097828588576
4	96362	201.4	1.3097828588576
4	96410	201.5	1.3097828588576
4	96458	201.6	1.3097828588576
4	96491	201.7	1.3097828588576
4	96539	201.8	1.3097828588576
4	96587	201.9	1.3097828588576
4	96635	202	1.3097828588576
4	96683	202.1	1.3097828588576
4	96731	202.2	1.3097828588576
4	96779	202.3	1.3097828588576
4	96827	202.4	1.3097828588576
4	96875	202.5	1.3097828588576
4	96923	202.6	1.3097828588576
4	96971	202.7	1.3097828588576
4	97019	202.8	1.3097828588576
4	97067	202.9	1.3097828588576
4	97115	203	1.3097828588576
4	97163	203.1	1.3097828588576
4	97211	203.2	1.3097828588576
4	97259	203.3	1.3097828588576
4	97307	203.4	1.3097828588576
4	97355	203.5	1.3097828588576
4	97403	203.6	1.3097828588576
4	97451	203.7	1.3097828588576
4	97499	203.8	1.3097828588576
4	97547	203.9	1.3097828588576
4	97595	204	1.3097828588576
4	97643	204.1	1.3097828588576
4	97691	204.2	1.3097828588576
4	97739	204.3	1.3097828588576
4	97787	204.4	1.3097828588576
4	97835	204.5	1.3097828588576
4	97883	204.6	1.3097828588576
4	97931	204.7	1.3097828588576
4	97979	204.8	1.3097828588576
4	98027	204.9	1.3097828588576
4	98075	205	1.3097828588576
4	98123	205.1	1.3097828588576
4	98171	205.2	1.3097828588576
4	98219	205.3	1.3097828588576
4	98267	205.4	1.3097828588576
4	98315	205.5	1.3097828588576
4	98363	205.6	1.3097828588576
4	98411	205.7	1.3097828588576
4	98459	205.8	1.3097828588576
4	98507	205.9	1.3097828588576
4	98555	206	1.3097828588576
4	98603	206.1	1.3097828588576
4	98651	206.2	1.3097828588576
4	98699	206.3	1.3097828588576
4	98747	206.4	1.3097828588576
4	98795	206.5	1.3097828588576
4	98843	206.6	1.3097828588576
4	98891	206.7	1.3097828588576
4	98938	206.8	1.3097828588576
4	98986	206.9	1.3097828588576
4	99034	207	1.3097828588576
4	99082	207.1	1.3097828588576
4	99130	207.2	1.3097828588576
4	99178	207.3	1.3097828588576
4	99226	207.4	1.3097828588576
4	99274	207.5	1.3097828588576
4	99322	207.6	1.3097828588576
4	99370	207.7	1.3097828588576
4	99418	207.8	1.3097828588576
4	99466	207.9	1.3097828588576
4	99514	208	1.3097828588576
4	99562	208.1	1.3097828588576
4	99610	208.2	1.3097828588576
4	99658	208.3	1.3097828588576
4	99706	208.4	1.3097828588576
4	99739	208.5	1.3097828588576
4	99787	208.6	1.3097828588576
4	99835	208.7	1.3097828588576
4	99883	208.8	1.3097828588576
4	99931	208.9	1.3097828588576
4	99979	209	1.3097828588576
4	100012	209.1	1.3097828588576
4	100045	209.2	1.3097828588576
4	100093	209.3	1.3097828588576
4	100141	209.4	1.3097828588576
4	100189	209.5	1.3097828588576
4	100237	209.6	1.3097828588576
4	100284	209.7	1.3097828588576
4	100332	209.8	1.3097828588576
4	100365	209.9	1.3097828588576
4	100413	210	1.3097828588576
4	100461	210.1	1.3097828588576
4	100509	210.2	1.3097828588576
4	100557	210.3	1.3097828588576
4	100605	210.4	1.3097828588576
4	100653	210.5	1.3097828588576
4	100701	210.6	1.3097828588576
4	100749	210.7	1.3097828588576
4	100797	210.8	1.3097828588576
4	100845	210.9	1.3097828588576
4	100892	211	1.3097828588576
4	100940	211.1	1.3097828588576
4	100988	211.2	1.3097828588576
4	101035	211.3	1.3097828588576
4	101083	211.4	1.3097828588576
4	101116	211.5	1.3097828588576
4	101164	211.6	1.3097828588576
4	101197	211.7	1.3097828588576
4	101245	211.8	1.3097828588576
4	101293	211.9	1.3097828588576
4	101341	212	1.3097828588576
4	101374	212.1	1.3097828588576
4	101422	212.2	1.3097828588576
4	101470	212.3	1.3097828588576
4	101518	212.4	1.3097828588576
4	101566	212.5	1.3097828588576
4	101614	212.6	1.3097828588576
4	101662	212.7	1.3097828588576
4	101710	212.8	1.3097828588576
4	101758	212.9	1.3097828588576
4	101791	213	1.3097828588576
4	101839	213.1	1.3097828588576
4	101887	213.2	1.3097828588576
4	101920	213.3	1.3097828588576
4	101968	213.4	1.3097828588576
4	102016	213.5	1.3097828588576
4	102063	213.6	1.3097828588576
4	102111	213.7	1.3097828588576
4	102159	213.8	1.3097828588576
4	102207	213.9	1.3097828588576
4	102255	214	1.3097828588576
4	102303	214.1	1.3097828588576
4	102351	214.2	1.3097828588576
4	102399	214.3	1.3097828588576
4	102447	214.4	1.3097828588576
4	102495	214.5	1.3097828588576
4	102543	214.6	1.3097828588576
4	102591	214.7	1.3097828588576
4	102639	214.8	1.3097828588576
4	102687	214.9	1.3097828588576
4	102735	215	1.3097828588576
4	102783	215.1	1.3097828588576
4	102831	215.2	1.3097828588576
4	102879	215.3	1.3097828588576
4	102926	215.4	1.3097828588576
4	102974	215.5	1.3097828588576
4	103022	215.6	1.3097828588576
4	103069	215.7	1.3097828588576
4	103117	215.8	1.3097828588576
4	103165	215.9	1.3097828588576
4	103212	216	1.3097828588576
4	103259	216.1	1.3097828588576
4	103307	216.2	1.3097828588576
4	103355	216.3	1.3097828588576
4	103403	216.4	1.3097828588576
4	103451	216.5	1.3097828588576
4	103499	216.6	1.3097828588576
4	103547	216.7	1.3097828588576
4	103595	216.8	1.3097828588576
4	103628	216.9	1.3097828588576
4	103676	217	1.3097828588576
4	103709	217.1	1.3097828588576
4	103757	217.2	1.3097828588576
4	103805	217.3	1.3097828588576
4	103853	217.4	1.3097828588576
4	103886	217.5	1.3097828588576
4	103933	217.6	1.3097828588576
4	103981	217.7	1.3097828588576
4	104028	217.8	1.3097828588576
4	104075	217.9	1.3097828588576
4	104122	218	1.3097828588576
4	104169	218.1	1.3097828588576
4	104217	218.2	1.3097828588576
4	104265	218.3	1.3097828588576
4	104312	218.4	1.3097828588576
4	104360	218.5	1.3097828588576
4	104408	218.6	1.3097828588576
4	104455	218.7	1.3097828588576
4	104502	218.8	1.3097828588576
4	104550	218.9	1.3097828588576
4	104583	219	1.3097828588576
3	56	0.3	0
3	104	0.4	0
3	152	0.5	0
3	200	0.6	0
3	248	0.7	0
3	296	0.8	0
3	344	0.9	0
3	392	1	0
3	440	1.1	26
3	488	1.2	0
3	536	1.3	0
3	584	1.4	0
3	632	1.5	0
3	680	1.6	0
3	728	1.7	0
3	776	1.8	0
3	824	1.9	0
3	872	2	0
3	920	2.1	14.172813111195
3	968	2.2	0
3	1016	2.3	0
3	1064	2.4	0
3	1112	2.5	0
3	1160	2.6	0
3	1208	2.7	0
3	1256	2.8	0
3	1304	2.9	0
3	1352	3	0
3	1400	3.1	0
3	1448	3.2	0
3	1496	3.3	0
3	1544	3.4	0
3	1592	3.5	0
3	1640	3.6	0
3	1688	3.7	0
3	1736	3.8	0
3	1784	3.9	0
3	1832	4	0
3	1880	4.1	0
3	1928	4.2	0
3	1976	4.3	0
3	2024	4.4	0
3	2072	4.5	0
3	2120	4.6	0
3	2168	4.7	0
3	2216	4.8	0
3	2264	4.9	0
3	2312	5	0
3	2360	5.1	0
3	2408	5.2	0
3	2456	5.3	0
3	2504	5.4	0
3	2552	5.5	0
3	2600	5.6	0
3	2648	5.7	0
3	2696	5.8	0
3	2744	5.9	0
3	2792	6	0
3	2840	6.1	0
3	2888	6.2	0
3	2936	6.3	0
3	2984	6.4	0
3	3032	6.5	0
3	3080	6.6	0
3	3128	6.7	0
3	3176	6.8	0
3	3224	6.9	0
3	3272	7	0
3	3320	7.1	0
3	3368	7.2	0
3	3416	7.3	0
3	3464	7.4	0
3	3512	7.5	0
3	3560	7.6	0
3	3608	7.7	0
3	3656	7.8	0
3	3704	7.9	0
3	3752	8	0
3	3800	8.1	0
3	3848	8.2	0
3	3896	8.3	0
3	3944	8.4	0
3	3992	8.5	0
3	4040	8.6	0
3	4088	8.7	0
3	4136	8.8	0
3	4184	8.9	0
3	4232	9	0
3	4280	9.1	0
3	4328	9.2	0
3	4376	9.3	0
3	4424	9.4	0
3	4472	9.5	0
3	4520	9.6	0
3	4568	9.7	0
3	4616	9.8	0
3	4664	9.9	0
3	4712	10	0
3	4760	10.1	0
3	4808	10.2	0
3	4856	10.3	0
3	4904	10.4	0
3	4952	10.5	0
3	5000	10.6	0
3	5048	10.7	0
3	5096	10.8	0
3	5144	10.9	0
3	5192	11	0
3	5240	11.1	0
3	5288	11.2	0
3	5336	11.3	0
3	5384	11.4	0
3	5432	11.5	0
3	5480	11.6	0
3	5528	11.7	0
3	5576	11.8	0
3	5624	11.9	0
3	5672	12	0
3	5720	12.1	0
3	5768	12.2	0
3	5816	12.3	0
3	5864	12.4	0
3	5912	12.5	0
3	5960	12.6	0
3	6008	12.7	0
3	6056	12.8	0
3	6104	12.9	0
3	6152	13	0
3	6200	13.1	0
3	6248	13.2	0
3	6296	13.3	0
3	6344	13.4	0
3	6392	13.5	0
3	6440	13.6	0
3	6488	13.7	0
3	6536	13.8	0
3	6584	13.9	0
3	6632	14	0
3	6680	14.1	0
3	6728	14.2	0
3	6776	14.3	0
3	6824	14.4	0
3	6872	14.5	0
3	6920	14.6	0
3	6968	14.7	0
3	7016	14.8	0
3	7064	14.9	0
3	7112	15	0
3	7160	15.1	0
3	7208	15.2	0
3	7256	15.3	0
3	7304	15.4	0
3	7352	15.5	0
3	7400	15.6	0
3	7448	15.7	0
3	7496	15.8	0
3	7544	15.9	0
3	7592	16	0
3	7640	16.1	0
3	7688	16.2	0
3	7736	16.3	0
3	7784	16.4	0
3	7832	16.5	0
3	7880	16.6	0
3	7928	16.7	0
3	7976	16.8	0
3	8024	16.9	0
3	8072	17	0
3	8120	17.1	0
3	8168	17.2	0
3	8216	17.3	0
3	8264	17.4	0
3	8312	17.5	0
3	8360	17.6	0
3	8408	17.7	0
3	8456	17.8	0
3	8504	17.9	0
3	8552	18	0
3	8600	18.1	0
3	8648	18.2	0
3	8696	18.3	0
3	8744	18.4	0
3	8792	18.5	0
3	8840	18.6	0
3	8888	18.7	0
3	8936	18.8	0
3	8984	18.9	0
3	9032	19	0
3	9080	19.1	0
3	9128	19.2	0
3	9176	19.3	0
3	9224	19.4	0
3	9272	19.5	0
3	9320	19.6	0
3	9368	19.7	0
3	9416	19.8	0
3	9464	19.9	0
3	9512	20	0
3	9560	20.1	0
3	9608	20.2	0
3	9656	20.3	0
3	9704	20.4	0
3	9752	20.5	0
3	9800	20.6	0
3	9848	20.7	0
3	9896	20.8	0
3	9944	20.9	0
3	9992	21	0
3	10040	21.1	0
3	10088	21.2	0
3	10136	21.3	0
3	10184	21.4	0
3	10232	21.5	0
3	10280	21.6	0
3	10328	21.7	0
3	10376	21.8	0
3	10424	21.9	0
3	10472	22	0
3	10520	22.1	0
3	10568	22.2	0
3	10616	22.3	0
3	10664	22.4	0
3	10712	22.5	0
3	10760	22.6	0
3	10808	22.7	0
3	10856	22.8	0
3	10904	22.9	0
3	10952	23	0
3	11000	23.1	0
3	11048	23.2	0
3	11096	23.3	0
3	11144	23.4	0
3	11192	23.5	0
3	11240	23.6	0
3	11288	23.7	0
3	11336	23.8	0
3	11384	23.9	0
3	11432	24	0
3	11480	24.1	0
3	11528	24.2	0
3	11576	24.3	0
3	11624	24.4	0
3	11672	24.5	0
3	11720	24.6	0
3	11768	24.7	0
3	11816	24.8	0
3	11864	24.9	0
3	11912	25	0
3	11960	25.1	0
3	12008	25.2	0
3	12056	25.3	0
3	12104	25.4	0
3	12152	25.5	0
3	12200	25.6	0
3	12248	25.7	0
3	12296	25.8	0
3	12344	25.9	0
3	12392	26	0
3	12440	26.1	0
3	12488	26.2	0
3	12536	26.3	0
3	12584	26.4	0
3	12632	26.5	0
3	12680	26.6	0
3	12728	26.7	0
3	12776	26.8	0
3	12824	26.9	0
3	12872	27	0
3	12920	27.1	0
3	12968	27.2	0
3	13016	27.3	0
3	13064	27.4	0
3	13112	27.5	0
3	13160	27.6	0
3	13208	27.7	0
3	13256	27.8	0
3	13304	27.9	0
3	13352	28	0
3	13400	28.1	0
3	13448	28.2	0
3	13496	28.3	0
3	13544	28.4	0
3	13592	28.5	0
3	13640	28.6	0
3	13688	28.7	0
3	13736	28.8	0
3	13784	28.9	0
3	13832	29	0
3	13880	29.1	0
3	13928	29.2	0
3	13976	29.3	0
3	14024	29.4	0
3	14072	29.5	0
3	14120	29.6	0
3	14168	29.7	0
3	14216	29.8	0
3	14264	29.9	0
3	14312	30	0
3	14360	30.1	0
3	14408	30.2	0
3	14456	30.3	0
3	14504	30.4	0
3	14552	30.5	0
3	14600	30.6	0
3	14648	30.7	0
3	14696	30.8	0
3	14744	30.9	0
3	14792	31	0
3	14840	31.1	0
3	14888	31.2	0
3	14936	31.3	0
3	14984	31.4	0
3	15032	31.5	0
3	15080	31.6	0
3	15128	31.7	0
3	15176	31.8	0
3	15224	31.9	0
3	15272	32	0
3	15320	32.1	0
3	15368	32.2	0
3	15416	32.3	0
3	15464	32.4	0
3	15512	32.5	0
3	15560	32.6	0
3	15608	32.7	0
3	15656	32.8	0
3	15704	32.9	0
3	15752	33	0
3	15800	33.1	0
3	15848	33.2	0
3	15896	33.3	0
3	15944	33.4	0
3	15992	33.5	0
3	16040	33.6	0
3	16088	33.7	0
3	16136	33.8	0
3	16184	33.9	0
3	16232	34	0
3	16280	34.1	0
3	16328	34.2	0
3	16376	34.3	0
3	16424	34.4	0
3	16472	34.5	0
3	16520	34.6	0
3	16568	34.7	0
3	16616	34.8	0
3	16664	34.9	0
3	16712	35	0
3	16760	35.1	0
3	16808	35.2	0
3	16856	35.3	0
3	16904	35.4	0
3	16952	35.5	0
3	17000	35.6	0
3	17048	35.7	0
3	17096	35.8	0
3	17144	35.9	0
3	17192	36	0
3	17240	36.1	0
3	17288	36.2	0
3	17336	36.3	0
3	17384	36.4	0
3	17432	36.5	0
3	17480	36.6	0
3	17528	36.7	0
3	17576	36.8	0
3	17624	36.9	0
3	17672	37	0
3	17720	37.1	0
3	17768	37.2	0
3	17816	37.3	0
3	17864	37.4	0
3	17912	37.5	0
3	17960	37.6	0
3	18008	37.7	0
3	18056	37.8	0
3	18104	37.9	0
3	18152	38	0
3	18200	38.1	0
3	18248	38.2	0
3	18296	38.3	0
3	18344	38.4	0
3	18392	38.5	0
3	18440	38.6	0
3	18488	38.7	0
3	18536	38.8	0
3	18584	38.9	0
3	18632	39	0
3	18680	39.1	0
3	18728	39.2	0
3	18776	39.3	0
3	18824	39.4	0
3	18872	39.5	0
3	18920	39.6	0
3	18968	39.7	0
3	19016	39.8	0
3	19064	39.9	0
3	19112	40	0
3	19160	40.1	0
3	19208	40.2	0
3	19256	40.3	0
3	19304	40.4	0
3	19352	40.5	0
3	19400	40.6	0
3	19448	40.7	0
3	19496	40.8	0
3	19544	40.9	0
3	19592	41	0
3	19640	41.1	0
3	19688	41.2	0
3	19736	41.3	0
3	19784	41.4	0
3	19832	41.5	0
3	19880	41.6	0
3	19928	41.7	0
3	19976	41.8	0
3	20024	41.9	0
3	20072	42	0
3	20120	42.1	0
3	20168	42.2	0
3	20216	42.3	0
3	20264	42.4	0
3	20312	42.5	0
3	20360	42.6	0
3	20408	42.7	0
3	20456	42.8	0
3	20504	42.9	0
3	20552	43	0
3	20600	43.1	0
3	20648	43.2	0
3	20696	43.3	0
3	20744	43.4	0
3	20792	43.5	0
3	20840	43.6	0
3	20888	43.7	0
3	20936	43.8	0
3	20984	43.9	0
3	21032	44	0
3	21080	44.1	0
3	21128	44.2	0
3	21176	44.3	0
3	21224	44.4	0
3	21272	44.5	0
3	21320	44.6	0
3	21368	44.7	0
3	21416	44.8	0
3	21464	44.9	0
3	21512	45	0
3	21560	45.1	0
3	21608	45.2	0
3	21656	45.3	0
3	21704	45.4	0
3	21752	45.5	0
3	21800	45.6	0
3	21848	45.7	0
3	21896	45.8	0
3	21944	45.9	0
3	21992	46	0
3	22040	46.1	0
3	22088	46.2	0
3	22136	46.3	0
3	22184	46.4	0
3	22232	46.5	0
3	22280	46.6	0
3	22328	46.7	0
3	22376	46.8	0
3	22424	46.9	0
3	22472	47	0
3	22520	47.1	0
3	22568	47.2	0
3	22616	47.3	0
3	22664	47.4	0
3	22712	47.5	0
3	22760	47.6	0
3	22808	47.7	0
3	22856	47.8	0
3	22904	47.9	0
3	22952	48	0
3	23000	48.1	0
3	23048	48.2	0
3	23096	48.3	0
3	23144	48.4	0
3	23192	48.5	0
3	23240	48.6	0
3	23288	48.7	0
3	23336	48.8	0
3	23384	48.9	0
3	23432	49	0
3	23480	49.1	0
3	23528	49.2	0
3	23576	49.3	0
3	23624	49.4	0
3	23672	49.5	0
3	23720	49.6	0
3	23768	49.7	0
3	23816	49.8	0
3	23864	49.9	0
3	23912	50	0
3	23960	50.1	0
3	24008	50.2	0
3	24056	50.3	0
3	24104	50.4	0
3	24152	50.5	0
3	24200	50.6	0
3	24248	50.7	0
3	24296	50.8	0
3	24344	50.9	0
3	24392	51	0
3	24440	51.1	0
3	24488	51.2	0
3	24536	51.3	0
3	24584	51.4	0
3	24632	51.5	0
3	24680	51.6	0
3	24728	51.7	0
3	24776	51.8	0
3	24824	51.9	0
3	24872	52	0
3	24920	52.1	0
3	24968	52.2	0
3	25016	52.3	0
3	25064	52.4	0
3	25112	52.5	0
3	25160	52.6	0
3	25208	52.7	0
3	25256	52.8	0
3	25304	52.9	0
3	25352	53	0
3	25400	53.1	0
3	25448	53.2	0
3	25496	53.3	0
3	25544	53.4	0
3	25592	53.5	0
3	25640	53.6	0
3	25688	53.7	0
3	25736	53.8	0
3	25784	53.9	0
3	25832	54	0
3	25880	54.1	0
3	25928	54.2	0
3	25976	54.3	0
3	26024	54.4	0
3	26072	54.5	0
3	26120	54.6	0
3	26168	54.7	0
3	26216	54.8	0
3	26264	54.9	0
3	26312	55	0
3	26360	55.1	0
3	26408	55.2	0
3	26456	55.3	0
3	26504	55.4	0
3	26552	55.5	0
3	26600	55.6	0
3	26648	55.7	0
3	26696	55.8	0
3	26744	55.9	0
3	26792	56	0
3	26840	56.1	0
3	26888	56.2	0
3	26936	56.3	0
3	26984	56.4	0
3	27032	56.5	0
3	27080	56.6	0
3	27128	56.7	0
3	27176	56.8	0
3	27224	56.9	0
3	27272	57	0
3	27320	57.1	0
3	27368	57.2	0
3	27416	57.3	0
3	27464	57.4	0
3	27512	57.5	0
3	27560	57.6	0
3	27608	57.7	0
3	27656	57.8	0
3	27704	57.9	0
3	27752	58	0
3	27800	58.1	0
3	27848	58.2	0
3	27896	58.3	0
3	27944	58.4	0
3	27992	58.5	0
3	28040	58.6	0
3	28088	58.7	0
3	28136	58.8	0
3	28184	58.9	0
3	28232	59	0
3	28280	59.1	0
3	28328	59.2	0
3	28376	59.3	0
3	28424	59.4	0
3	28472	59.5	0
3	28520	59.6	0
3	28568	59.7	0
3	28616	59.8	0
3	28664	59.9	0
3	28712	60	0
3	28760	60.1	0
3	28808	60.2	0
3	28856	60.3	0
3	28904	60.4	0
3	28952	60.5	0
3	29000	60.6	0
3	29048	60.7	0
3	29096	60.8	0
3	29144	60.9	0
3	29192	61	0
3	29240	61.1	0
3	29288	61.2	0
3	29336	61.3	0
3	29384	61.4	0
3	29432	61.5	0
3	29480	61.6	0
3	29528	61.7	0
3	29576	61.8	0
3	29624	61.9	0
3	29672	62	0
3	29720	62.1	0
3	29768	62.2	0
3	29816	62.3	0
3	29864	62.4	0
3	29912	62.5	0
3	29960	62.6	0
3	30008	62.7	0
3	30056	62.8	0
3	30104	62.9	0
3	30152	63	0
3	30200	63.1	0
3	30248	63.2	0
3	30296	63.3	0
3	30344	63.4	0
3	30392	63.5	0
3	30440	63.6	0
3	30488	63.7	0
3	30536	63.8	0
3	30584	63.9	0
3	30632	64	0
3	30680	64.1	0
3	30728	64.2	0
3	30776	64.3	0
3	30824	64.4	0
3	30872	64.5	0
3	30920	64.6	0
3	30968	64.7	0
3	31016	64.8	0
3	31064	64.9	0
3	31112	65	0
3	31160	65.1	0
3	31208	65.2	0
3	31256	65.3	0
3	31304	65.4	0
3	31352	65.5	0
3	31400	65.6	0
3	31448	65.7	0
3	31496	65.8	0
3	31544	65.9	0
3	31592	66	0
3	31640	66.1	0
3	31688	66.2	0
3	31736	66.3	0
3	31784	66.4	0
3	31832	66.5	0
3	31880	66.6	0
3	31928	66.7	0
3	31976	66.8	0
3	32024	66.9	0
3	32072	67	0
3	32120	67.1	0
3	32168	67.2	0
3	32216	67.3	0
3	32264	67.4	0
3	32312	67.5	0
3	32360	67.6	0
3	32408	67.7	0
3	32456	67.8	0
3	32504	67.9	0
3	32552	68	0
3	32600	68.1	0
3	32648	68.2	0
3	32696	68.3	0
3	32744	68.4	0
3	32792	68.5	0
3	32840	68.6	0
3	32888	68.7	0
3	32936	68.8	0
3	32984	68.9	0
3	33032	69	0
3	33080	69.1	0
3	33128	69.2	0
3	33176	69.3	0
3	33224	69.4	0
3	33272	69.5	0
3	33320	69.6	0
3	33368	69.7	0
3	33416	69.8	0
3	33464	69.9	0
3	33512	70	0
3	33560	70.1	0
3	33608	70.2	0
3	33656	70.3	0
3	33704	70.4	0
3	33752	70.5	0
3	33800	70.6	0
3	33848	70.7	0
3	33896	70.8	0
3	33944	70.9	0
3	33992	71	0
3	34040	71.1	0
3	34088	71.2	0
3	34136	71.3	0
3	34184	71.4	0
3	34232	71.5	0
3	34280	71.6	0
3	34328	71.7	0
3	34376	71.8	0
3	34424	71.9	0
3	34472	72	0
3	34520	72.1	0
3	34568	72.2	0
3	34616	72.3	0
3	34664	72.4	0
3	34712	72.5	0
3	34760	72.6	0
3	34808	72.7	0
3	34856	72.8	0
3	34904	72.9	0
3	34952	73	0
3	35000	73.1	0
3	35048	73.2	0
3	35096	73.3	0
3	35144	73.4	0
3	35192	73.5	0
3	35240	73.6	0
3	35288	73.7	0
3	35336	73.8	0
3	35384	73.9	0
3	35432	74	0
3	35480	74.1	0
3	35528	74.2	0
3	35576	74.3	0
3	35624	74.4	0
3	35672	74.5	0
3	35720	74.6	0
3	35768	74.7	0
3	35816	74.8	0
3	35864	74.9	0
3	35912	75	0
3	35960	75.1	0
3	36008	75.2	0
3	36056	75.3	0
3	36104	75.4	0
3	36152	75.5	0
3	36200	75.6	0
3	36248	75.7	0
3	36296	75.8	0
3	36344	75.9	0
3	36392	76	0
3	36440	76.1	0
3	36488	76.2	0
3	36536	76.3	0
3	36584	76.4	0
3	36632	76.5	0
3	36680	76.6	0
3	36728	76.7	0
3	36776	76.8	0
3	36824	76.9	0
3	36872	77	0
3	36920	77.1	0
3	36968	77.2	0
3	37016	77.3	0
3	37064	77.4	0
3	37112	77.5	0
3	37160	77.6	0
3	37208	77.7	0
3	37256	77.8	0
3	37304	77.9	0
3	37352	78	0
3	37400	78.1	0
3	37448	78.2	0
3	37496	78.3	0
3	37544	78.4	0
3	37592	78.5	0
3	37640	78.6	0
3	37688	78.7	0
3	37736	78.8	0
3	37784	78.9	0
3	37832	79	0
3	37880	79.1	0
3	37928	79.2	0
3	37976	79.3	0
3	38024	79.4	0
3	38072	79.5	0
3	38120	79.6	0
3	38168	79.7	0
3	38216	79.8	0
3	38264	79.9	0
3	38312	80	0
3	38360	80.1	0
3	38408	80.2	0
3	38456	80.3	0
3	38504	80.4	0
3	38552	80.5	0
3	38600	80.6	0
3	38648	80.7	0
3	38696	80.8	0
3	38744	80.9	0
3	38792	81	0
3	38840	81.1	0
3	38888	81.2	0
3	38936	81.3	0
3	38984	81.4	0
3	39032	81.5	0
3	39080	81.6	0
3	39128	81.7	0
3	39176	81.8	0
3	39224	81.9	0
3	39272	82	0
3	39320	82.1	0
3	39368	82.2	0
3	39416	82.3	0
3	39464	82.4	0
3	39512	82.5	0
3	39560	82.6	0
3	39608	82.7	0
3	39656	82.8	0
3	39704	82.9	0
3	39752	83	0
3	39800	83.1	0
3	39848	83.2	0
3	39896	83.3	0
3	39944	83.4	0
3	39992	83.5	0
3	40040	83.6	0
3	40088	83.7	0
3	40136	83.8	0
3	40184	83.9	0
3	40232	84	0
3	40280	84.1	0
3	40328	84.2	0
3	40376	84.3	0
3	40424	84.4	0
3	40472	84.5	0
3	40520	84.6	0
3	40568	84.7	0
3	40616	84.8	0
3	40664	84.9	0
3	40712	85	0
3	40760	85.1	0
3	40808	85.2	0
3	40856	85.3	0
3	40904	85.4	0
3	40952	85.5	0
3	41000	85.6	0
3	41048	85.7	0
3	41096	85.8	0
3	41144	85.9	0
3	41192	86	0
3	41240	86.1	0
3	41288	86.2	0
3	41336	86.3	0
3	41384	86.4	0
3	41432	86.5	0
3	41480	86.6	0
3	41528	86.7	0
3	41576	86.8	0
3	41624	86.9	0
3	41672	87	0
3	41720	87.1	0
3	41768	87.2	0
3	41816	87.3	0
3	41864	87.4	0
3	41912	87.5	0
3	41960	87.6	0
3	42008	87.7	0
3	42056	87.8	0
3	42104	87.9	0
3	42152	88	0
3	42200	88.1	0
3	42248	88.2	0
3	42296	88.3	0
3	42344	88.4	0
3	42392	88.5	0
3	42440	88.6	0
3	42488	88.7	0
3	42536	88.8	0
3	42584	88.9	0
3	42632	89	0
3	42680	89.1	0
3	42728	89.2	0
3	42776	89.3	0
3	42824	89.4	0
3	42872	89.5	0
3	42920	89.6	0
3	42968	89.7	0
3	43016	89.8	0
3	43064	89.9	0
3	43112	90	0
3	43160	90.1	0
3	43208	90.2	0
3	43256	90.3	0
3	43304	90.4	0
3	43352	90.5	0
3	43400	90.6	0
3	43448	90.7	0
3	43496	90.8	0
3	43544	90.9	0
3	43592	91	0
[...]
0	67784	141.4	459.11938355673
0	67832	141.5	459.11938355673
0	67880	141.6	459.11938355673
0	67928	141.7	459.11938355673
0	67976	141.8	459.11938355673
0	68024	141.9	459.11938355673
0	68072	142	459.11938355673
0	68120	142.1	463.03666486785
0	68168	142.2	463.03666486785
0	68216	142.3	463.03666486785
0	68264	142.4	463.03666486785
0	68312	142.5	463.03666486785
0	68360	142.6	463.03666486785
0	68408	142.7	463.03666486785
0	68456	142.8	463.03666486785
0	68504	142.9	463.03666486785
0	68552	143	463.03666486785
0	68600	143.1	467.05394617897
0	68648	143.2	467.05394617897
0	68696	143.3	467.05394617897
0	68744	143.4	467.05394617897
0	68792	143.5	467.05394617897
0	68840	143.6	467.05394617897
0	68888	143.7	467.05394617897
0	68936	143.8	467.05394617897
0	68984	143.9	467.05394617897
0	69032	144	467.05394617897
0	69080	144.1	471.07122749009
0	69128	144.2	471.07122749009
0	69176	144.3	471.07122749009
0	69224	144.4	471.07122749009
0	69272	144.5	471.07122749009
0	69320	144.6	471.07122749009
0	69368	144.7	471.07122749009
0	69416	144.8	471.07122749009
0	69464	144.9	471.07122749009
0	69512	145	471.07122749009
0	69560	145.1	475
0	69608	145.2	475
0	69656	145.3	475
0	69704	145.4	475
0	69752	145.5	475
0	69800	145.6	475
0	69848	145.7	475
0	69896	145.8	475
0	69944	145.9	475
0	69992	146	475
0	70040	146.1	479.00579011233
0	70088	146.2	479.00579011233
0	70136	146.3	479.00579011233
0	70184	146.4	479.00579011233
0	70232	146.5	479.00579011233
0	70280	146.6	479.00579011233
0	70328	146.7	479.00579011233
0	70376	146.8	479.00579011233
0	70424	146.9	479.00579011233
0	70472	147	479.00579011233
0	70520	147.1	483.02307142345
0	70568	147.2	483.02307142345
0	70616	147.3	483.02307142345
0	70664	147.4	483.02307142345
0	70712	147.5	483.02307142345
0	70760	147.6	483.02307142345
0	70808	147.7	483.02307142345
0	70856	147.8	483.02307142345
0	70904	147.9	483.02307142345
0	70952	148	483.02307142345
0	71000	148.1	487.04035273457
0	71048	148.2	487.04035273457
0	71096	148.3	487.04035273457
0	71144	148.4	487.04035273457
0	71192	148.5	487.04035273457
0	71240	148.6	487.04035273457
0	71288	148.7	487.04035273457
0	71336	148.8	487.04035273457
0	71384	148.9	487.04035273457
0	71432	149	487.04035273457
0	71480	149.1	490.95763404569
0	71528	149.2	490.95763404569
0	71576	149.3	490.95763404569
0	71624	149.4	490.95763404569
0	71672	149.5	490.95763404569
0	71720	149.6	490.95763404569
0	71768	149.7	490.95763404569
0	71816	149.8	490.95763404569
0	71864	149.9	490.95763404569
0	71912	150	490.95763404569
0	71960	150.1	494.97491535681
0	72008	150.2	494.97491535681
0	72056	150.3	494.97491535681
0	72104	150.4	494.97491535681
0	72152	150.5	494.97491535681
0	72200	150.6	494.97491535681
0	72248	150.7	494.97491535681
0	72296	150.8	494.97491535681
0	72344	150.9	494.97491535681
0	72392	151	494.97491535681
0	72440	151.1	498.99219666793
0	72488	151.2	498.99219666793
0	72536	151.3	498.99219666793
0	72584	151.4	498.99219666793
0	72632	151.5	498.99219666793
0	72680	151.6	498.99219666793
0	72728	151.7	498.99219666793
0	72776	151.8	498.99219666793
0	72824	151.9	498.99219666793
0	72872	152	498.99219666793
0	72920	152.1	502.90947797905
0	72968	152.2	502.90947797905
0	73016	152.3	502.90947797905
0	73064	152.4	502.90947797905
0	73112	152.5	502.90947797905
0	73160	152.6	502.90947797905
0	73208	152.7	502.90947797905
0	73256	152.8	502.90947797905
0	73304	152.9	502.90947797905
0	73352	153	502.90947797905
0	73400	153.1	506.92675929017
0	73448	153.2	506.92675929017
0	73496	153.3	506.92675929017
0	73544	153.4	506.92675929017
0	73592	153.5	506.92675929017
0	73640	153.6	506.92675929017
0	73688	153.7	506.92675929017
0	73736	153.8	506.92675929017
0	73784	153.9	506.92675929017
0	73832	154	506.92675929017
0	73880	154.1	510.94404060129
0	73928	154.2	510.94404060129
0	73976	154.3	510.94404060129
0	74024	154.4	510.94404060129
0	74072	154.5	510.94404060129
0	74120	154.6	510.94404060129
0	74168	154.7	510.94404060129
0	74216	154.8	510.94404060129
0	74264	154.9	510.94404060129
0	74312	155	510.94404060129
0	74360	155.1	514.86132191241
0	74408	155.2	514.86132191241
0	74456	155.3	514.86132191241
0	74504	155.4	514.86132191241
0	74552	155.5	514.86132191241
0	74600	155.6	514.86132191241
0	74648	155.7	514.86132191241
0	74696	155.8	514.86132191241
0	74744	155.9	514.86132191241
0	74792	156	514.86132191241
0	74840	156.1	518.87860322353
0	74888	156.2	518.87860322353
0	74936	156.3	518.87860322353
0	74984	156.4	518.87860322353
0	75032	156.5	518.87860322353
0	75080	156.6	518.87860322353
0	75128	156.7	518.87860322353
0	75176	156.8	518.87860322353
0	75224	156.9	518.87860322353
0	75272	157	518.87860322353
0	75320	157.1	522.89588453465
0	75368	157.2	522.89588453465
0	75416	157.3	522.89588453465
0	75464	157.4	522.89588453465
0	75512	157.5	522.89588453465
0	75560	157.6	522.89588453465
0	75608	157.7	522.89588453465
0	75656	157.8	522.89588453465
0	75704	157.9	522.89588453465
0	75752	158	522.89588453465
0	75800	158.1	526.81316584577
0	75848	158.2	526.81316584577
0	75896	158.3	526.81316584577
0	75944	158.4	526.81316584577
0	75992	158.5	526.81316584577
0	76040	158.6	526.81316584577
0	76088	158.7	526.81316584577
0	76136	158.8	526.81316584577
0	76184	158.9	526.81316584577
0	76232	159	526.81316584577
0	76280	159.1	530.83044715688
0	76328	159.2	530.83044715688
0	76376	159.3	530.83044715688
0	76424	159.4	530.83044715688
0	76472	159.5	530.83044715688
0	76520	159.6	530.83044715688
0	76568	159.7	530.83044715688
0	76616	159.8	530.83044715688
0	76664	159.9	530.83044715688
0	76712	160	530.83044715688
0	76760	160.1	534.847728468
0	76808	160.2	534.847728468
0	76856	160.3	534.847728468
0	76904	160.4	534.847728468
0	76952	160.5	534.847728468
0	77000	160.6	534.847728468
0	77048	160.7	534.847728468
0	77096	160.8	534.847728468
0	77144	160.9	534.847728468
0	77192	161	534.847728468
0	77240	161.1	538.76500977912
0	77288	161.2	538.76500977912
0	77336	161.3	538.76500977912
0	77384	161.4	538.76500977912
0	77432	161.5	538.76500977912
0	77480	161.6	538.76500977912
0	77528	161.7	538.76500977912
0	77576	161.8	538.76500977912
0	77624	161.9	538.76500977912
0	77672	162	538.76500977912
0	77720	162.1	542.78229109024
0	77768	162.2	542.78229109024
0	77816	162.3	542.78229109024
0	77864	162.4	542.78229109024
0	77912	162.5	542.78229109024
0	77960	162.6	542.78229109024
0	78008	162.7	542.78229109024
0	78056	162.8	542.78229109024
0	78104	162.9	542.78229109024
0	78152	163	542.78229109024
0	78200	163.1	546.79957240136
0	78248	163.2	546.79957240136
0	78296	163.3	546.79957240136
0	78344	163.4	546.79957240136
0	78392	163.5	546.79957240136
0	78440	163.6	546.79957240136
0	78488	163.7	546.79957240136
0	78536	163.8	546.79957240136
0	78584	163.9	546.79957240136
0	78632	164	546.79957240136
0	78680	164.1	550.71685371248
0	78728	164.2	550.71685371248
0	78776	164.3	550.71685371248
0	78824	164.4	550.71685371248
0	78872	164.5	550.71685371248
0	78920	164.6	550.71685371248
0	78968	164.7	550.71685371248
0	79016	164.8	550.71685371248
0	79064	164.9	550.71685371248
0	79112	165	550.71685371248
0	79160	165.1	554.7341350236
0	79208	165.2	554.7341350236
0	79256	165.3	554.7341350236
0	79304	165.4	554.7341350236
0	79352	165.5	554.7341350236
0	79400	165.6	554.7341350236
0	79448	165.7	554.7341350236
0	79496	165.8	554.7341350236
0	79544	165.9	554.7341350236
0	79592	166	554.7341350236
0	79640	166.1	558.75141633472
0	79688	166.2	558.75141633472
0	79736	166.3	558.75141633472
0	79784	166.4	558.75141633472
0	79832	166.5	558.75141633472
0	79880	166.6	558.75141633472
0	79928	166.7	558.75141633472
0	79976	166.8	558.75141633472
0	80024	166.9	558.75141633472
0	80072	167	558.75141633472
0	80120	167.1	562.66869764584
0	80168	167.2	562.66869764584
0	80216	167.3	562.66869764584
0	80264	167.4	562.66869764584
0	80312	167.5	562.66869764584
0	80360	167.6	562.66869764584
0	80408	167.7	562.66869764584
0	80456	167.8	562.66869764584
0	80504	167.9	562.66869764584
0	80552	168	562.66869764584
0	80600	168.1	566.68597895696
0	80648	168.2	566.68597895696
0	80696	168.3	566.68597895696
0	80744	168.4	566.68597895696
0	80792	168.5	566.68597895696
0	80840	168.6	566.68597895696
0	80888	168.7	566.68597895696
0	80936	168.8	566.68597895696
0	80984	168.9	566.68597895696
0	81032	169	566.68597895696
0	81080	169.1	570.70326026808
0	81128	169.2	570.70326026808
0	81176	169.3	570.70326026808
0	81224	169.4	570.70326026808
0	81272	169.5	570.70326026808
0	81320	169.6	570.70326026808
0	81368	169.7	570.70326026808
0	81416	169.8	570.70326026808
0	81464	169.9	570.70326026808
0	81512	170	570.70326026808
0	81560	170.1	574.7205415792
0	81608	170.2	574.7205415792
0	81656	170.3	574.7205415792
0	81704	170.4	574.7205415792
0	81752	170.5	574.7205415792
0	81800	170.6	574.7205415792
0	81848	170.7	574.7205415792
0	81896	170.8	574.7205415792
0	81944	170.9	574.7205415792
0	81992	171	574.7205415792
0	82040	171.1	578.63782289032
0	82088	171.2	578.63782289032
0	82136	171.3	578.63782289032
0	82184	171.4	578.63782289032
0	82232	171.5	578.63782289032
0	82280	171.6	578.63782289032
0	82328	171.7	578.63782289032
0	82376	171.8	578.63782289032
0	82424	171.9	578.63782289032
0	82472	172	578.63782289032
0	82520	172.1	582.65510420144
0	82568	172.2	582.65510420144
0	82616	172.3	582.65510420144
0	82664	172.4	582.65510420144
0	82712	172.5	582.65510420144
0	82760	172.6	582.65510420144
0	82808	172.7	582.65510420144
0	82856	172.8	582.65510420144
0	82904	172.9	582.65510420144
0	82952	173	582.65510420144
0	83000	173.1	586.67238551256
0	83048	173.2	586.67238551256
0	83096	173.3	586.67238551256
0	83144	173.4	586.67238551256
0	83192	173.5	586.67238551256
0	83240	173.6	586.67238551256
0	83288	173.7	586.67238551256
0	83336	173.8	586.67238551256
0	83384	173.9	586.67238551256
0	83432	174	586.67238551256
0	83480	174.1	590.58966682368
0	83527	174.2	590.58966682368
0	83575	174.3	590.58966682368
0	83623	174.4	590.58966682368
0	83671	174.5	590.58966682368
0	83719	174.6	590.58966682368
0	83767	174.7	590.58966682368
0	83815	174.8	590.58966682368
0	83863	174.9	590.58966682368
0	83911	175	590.58966682368
0	83959	175.1	594.6069481348
0	84007	175.2	594.6069481348
0	84055	175.3	594.6069481348
0	84103	175.4	594.6069481348
0	84151	175.5	594.6069481348
0	84199	175.6	594.6069481348
0	84247	175.7	594.6069481348
0	84295	175.8	594.6069481348
0	84343	175.9	594.6069481348
0	84391	176	594.6069481348
0	84439	176.1	597.97095462842
0	84472	176.2	597.97095462842
0	84504	176.3	597.97095462842
0	84551	176.4	597.97095462842
0	84599	176.5	597.97095462842
0	84646	176.6	597.97095462842
0	84679	176.7	597.97095462842
0	84727	176.8	597.97095462842
0	84774	176.9	597.97095462842
0	84807	177	597.97095462842
0	84854	177.1	598.4
0	84902	177.2	598.4
0	84950	177.3	598.4
0	84998	177.4	598.4
0	85046	177.5	598.4
0	85094	177.6	598.4
0	85142	177.7	598.4
0	85190	177.8	598.4
0	85238	177.9	598.4
0	85286	178	598.4
0	85334	178.1	598.4
0	85382	178.2	598.4
0	85430	178.3	598.4
0	85478	178.4	598.4
0	85526	178.5	598.4
0	85574	178.6	598.4
0	85622	178.7	598.4
0	85670	178.8	598.4
0	85718	178.9	598.4
0	85766	179	598.4
0	85813	179.1	598.4
0	85861	179.2	598.4
0	85908	179.3	598.4
0	85956	179.4	598.4
0	86004	179.5	598.4
0	86052	179.6	598.4
0	86100	179.7	598.4
0	86148	179.8	598.4
0	86196	179.9	598.4
0	86243	180	598.4
0	86291	180.1	598.4
0	86339	180.2	598.4
0	86387	180.3	598.4
0	86435	180.4	598.4
0	86483	180.5	598.4
0	86531	180.6	598.4
0	86579	180.7	598.4
0	86627	180.8	598.4
0	86675	180.9	598.4
0	86708	181	598.4
0	86756	181.1	598.4
0	86804	181.2	598.4
0	86852	181.3	598.4
0	86900	181.4	598.4
0	86948	181.5	598.4
0	86996	181.6	598.4
0	87044	181.7	598.4
0	87092	181.8	598.4
0	87140	181.9	598.4
0	87188	182	598.4
0	87236	182.1	598.4
0	87284	182.2	598.4
0	87332	182.3	598.4
0	87380	182.4	598.4
0	87428	182.5	598.4
0	87476	182.6	598.4
0	87524	182.7	598.4
0	87572	182.8	598.4
0	87620	182.9	598.4
0	87668	183	598.4
0	87715	183.1	598.4
0	87763	183.2	598.4
0	87811	183.3	598.4
0	87844	183.4	598.4
0	87892	183.5	598.4
0	87940	183.6	598.4
0	87988	183.7	598.4
0	88036	183.8	598.4
0	88084	183.9	598.4
0	88132	184	598.4
0	88180	184.1	598.4
0	88228	184.2	598.4
0	88276	184.3	598.4
0	88324	184.4	598.4
0	88372	184.5	598.4
0	88420	184.6	598.4
0	88468	184.7	598.4
0	88501	184.8	598.4
0	88549	184.9	598.4
0	88597	185	598.4
0	88645	185.1	598.4
0	88693	185.2	598.4
0	88741	185.3	598.4
0	88789	185.4	598.4
0	88837	185.5	598.4
0	88885	185.6	598.4
0	88933	185.7	598.4
0	88981	185.8	598.4
0	89029	185.9	598.4
0	89077	186	598.4
0	89125	186.1	598.4
0	89173	186.2	598.4
0	89221	186.3	598.4
0	89269	186.4	598.4
0	89317	186.5	598.4
0	89365	186.6	598.4
0	89413	186.7	598.4
0	89461	186.8	598.4
0	89509	186.9	598.4
0	89557	187	598.4
0	89605	187.1	598.4
0	89653	187.2	598.4
0	89701	187.3	598.4
0	89749	187.4	598.4
0	89797	187.5	598.4
0	89845	187.6	598.4
0	89893	187.7	598.4
0	89941	187.8	598.4
0	89989	187.9	598.4
0	90037	188	598.4
0	90085	188.1	598.4
0	90132	188.2	598.4
0	90180	188.3	598.4
0	90228	188.4	598.4
0	90276	188.5	598.4
0	90324	188.6	598.4
0	90372	188.7	598.4
0	90420	188.8	598.4
0	90468	188.9	598.4
0	90516	189	598.4
0	90564	189.1	598.4
0	90612	189.2	598.4
0	90660	189.3	598.4
0	90708	189.4	598.4
0	90756	189.5	598.4
0	90804	189.6	598.4
0	90852	189.7	598.4
0	90900	189.8	598.4
0	90948	189.9	598.4
0	90996	190	598.4
0	91044	190.1	598.4
0	91092	190.2	598.4
0	91140	190.3	598.4
0	91173	190.4	598.4
0	91221	190.5	598.4
0	91269	190.6	598.4
0	91317	190.7	598.4
0	91365	190.8	598.4
0	91413	190.9	598.4
0	91461	191	598.4
0	91509	191.1	598.4
0	91557	191.2	598.4
0	91605	191.3	598.4
0	91653	191.4	598.4
0	91701	191.5	598.4
0	91749	191.6	598.4
0	91797	191.7	598.4
0	91845	191.8	598.4
0	91893	191.9	598.4
0	91941	192	598.4
0	91974	192.1	598.4
0	92022	192.2	598.4
0	92070	192.3	598.4
0	92118	192.4	598.4
0	92166	192.5	598.4
0	92214	192.6	598.4
0	92262	192.7	598.4
0	92310	192.8	598.4
0	92358	192.9	598.4
0	92406	193	598.4
0	92454	193.1	598.4
0	92502	193.2	598.4
0	92550	193.3	598.4
0	92598	193.4	598.4
0	92646	193.5	598.4
0	92694	193.6	598.4
0	92742	193.7	598.4
0	92790	193.8	598.4
0	92838	193.9	598.4
0	92886	194	598.4
0	92934	194.1	598.4
0	92982	194.2	598.4
0	93030	194.3	598.4
0	93078	194.4	598.4
0	93126	194.5	598.4
0	93174	194.6	598.4
0	93222	194.7	598.4
0	93270	194.8	598.4
0	93318	194.9	598.4
0	93366	195	598.4
0	93414	195.1	598.4
0	93462	195.2	598.4
0	93495	195.3	598.4
0	93543	195.4	598.4
0	93591	195.5	598.4
0	93639	195.6	598.4
0	93687	195.7	598.4
0	93735	195.8	598.4
0	93783	195.9	598.4
0	93831	196	598.4
0	93879	196.1	598.4
0	93927	196.2	598.4
0	93975	196.3	598.4
0	94023	196.4	598.4
0	94071	196.5	598.4
0	94104	196.6	598.4
0	94152	196.7	598.4
0	94200	196.8	598.4
0	94248	196.9	598.4
0	94296	197	598.4
0	94344	197.1	598.4
0	94392	197.2	598.4
0	94440	197.3	598.4
0	94488	197.4	598.4
0	94536	197.5	598.4
0	94584	197.6	598.4
0	94632	197.7	598.4
0	94680	197.8	598.4
0	94728	197.9	598.4
0	94761	198	598.4
0	94809	198.1	598.4
0	94857	198.2	598.4
0	94905	198.3	598.4
0	94953	198.4	598.4
0	95001	198.5	598.4
0	95049	198.6	598.4
0	95097	198.7	598.4
0	95145	198.8	598.4
0	95178	198.9	598.4
0	95226	199	598.4
0	95274	199.1	598.4
0	95322	199.2	598.4
0	95370	199.3	598.4
0	95418	199.4	598.4
0	95466	199.5	598.4
0	95514	199.6	598.4
0	95562	199.7	598.4
0	95610	199.8	598.4
0	95658	199.9	598.4
0	95706	200	598.4
0	95753	200.1	598.4
0	95801	200.2	598.4
0	95849	200.3	598.4
0	95882	200.4	598.4
0	95930	200.5	598.4
0	95978	200.6	598.4
0	96026	200.7	598.4
0	96074	200.8	598.4
0	96122	200.9	598.4
0	96170	201	598.4
0	96218	201.1	598.4
0	96266	201.2	598.4
0	96314	201.3	598.4
0	96362	201.4	598.4
0	96410	201.5	598.4
0	96458	201.6	598.4
0	96491	201.7	598.4
0	96539	201.8	598.4
0	96587	201.9	598.4
0	96635	202	598.4
0	96683	202.1	598.4
0	96731	202.2	598.4
0	96779	202.3	598.4
0	96827	202.4	598.4
0	96875	202.5	598.4
0	96923	202.6	598.4
0	96971	202.7	598.4
0	97019	202.8	598.4
0	97067	202.9	598.4
0	97115	203	598.4
0	97163	203.1	598.4
0	97211	203.2	598.4
0	97259	203.3	598.4
0	97307	203.4	598.4
0	97355	203.5	598.4
0	97403	203.6	598.4
0	97451	203.7	598.4
0	97499	203.8	598.4
0	97547	203.9	598.4
0	97595	204	598.4
0	97643	204.1	598.4
0	97691	204.2	598.4
0	97739	204.3	598.4
0	97787	204.4	598.4
0	97835	204.5	598.4
0	97883	204.6	598.4
0	97931	204.7	598.4
0	97979	204.8	598.4
0	98027	204.9	598.4
0	98075	205	598.4
0	98123	205.1	598.4
0	98171	205.2	598.4
0	98219	205.3	598.4
0	98267	205.4	598.4
0	98315	205.5	598.4
0	98363	205.6	598.4
0	98411	205.7	598.4
0	98459	205.8	598.4
0	98507	205.9	598.4
0	98555	206	598.4
0	98603	206.1	598.4
0	98651	206.2	598.4
0	98699	206.3	598.4
0	98747	206.4	598.4
0	98795	206.5	598.4
0	98843	206.6	598.4
0	98891	206.7	598.4
0	98938	206.8	598.4
0	98986	206.9	598.4
0	99034	207	598.4
0	99082	207.1	598.4
0	99130	207.2	598.4
0	99178	207.3	598.4
0	99226	207.4	598.4
0	99274	207.5	598.4
0	99322	207.6	598.4
0	99370	207.7	598.4
0	99418	207.8	598.4
0	99466	207.9	598.4
0	99514	208	598.4
0	99562	208.1	598.49435950408
0	99610	208.2	598.49435950408
0	99658	208.3	598.49435950408
0	99706	208.4	598.49435950408
0	99739	208.5	598.49435950408
0	99787	208.6	598.49435950408
0	99835	208.7	598.49435950408
0	99883	208.8	598.49435950408
0	99931	208.9	598.49435950408
0	99979	209	598.49435950408
0	100012	209.1	599.35921067248
0	100045	209.2	599.35921067248
0	100093	209.3	599.35921067248
0	100141	209.4	599.35921067248
0	100189	209.5	599.35921067248
0	100237	209.6	599.35921067248
0	100284	209.7	599.35921067248
0	100332	209.8	599.35921067248
0	100365	209.9	599.35921067248
0	100413	210	599.35921067248
0	100461	210.1	601.97745593656
0	100509	210.2	601.97745593656
0	100557	210.3	601.97745593656
0	100605	210.4	601.97745593656
0	100653	210.5	601.97745593656
0	100701	210.6	601.97745593656
0	100749	210.7	601.97745593656
0	100797	210.8	601.97745593656
0	100845	210.9	601.97745593656
0	100892	211	601.97745593656
0	100940	211.1	605.74345319508
0	100988	211.2	605.74345319508
0	101035	211.3	605.74345319508
0	101083	211.4	605.74345319508
0	101116	211.5	605.74345319508
0	101164	211.6	605.74345319508
0	101197	211.7	605.74345319508
0	101245	211.8	605.74345319508
0	101293	211.9	605.74345319508
0	101341	212	605.74345319508
0	101374	212.1	609.74635664622
0	101422	212.2	609.74635664622
0	101470	212.3	609.74635664622
0	101518	212.4	609.74635664622
0	101566	212.5	609.74635664622
0	101614	212.6	609.74635664622
0	101662	212.7	609.74635664622
0	101710	212.8	609.74635664622
0	101758	212.9	609.74635664622
0	101791	213	609.74635664622
0	101839	213.1	613.66363795734
0	101887	213.2	613.66363795734
0	101920	213.3	613.66363795734
0	101968	213.4	613.66363795734
0	102016	213.5	613.66363795734
0	102063	213.6	613.66363795734
0	102111	213.7	613.66363795734
0	102159	213.8	613.66363795734
0	102207	213.9	613.66363795734
0	102255	214	613.66363795734
0	102303	214.1	617.68091926846
0	102351	214.2	617.68091926846
0	102399	214.3	617.68091926846
0	102447	214.4	617.68091926846
0	102495	214.5	617.68091926846
0	102543	214.6	617.68091926846
0	102591	214.7	617.68091926846
0	102639	214.8	617.68091926846
0	102687	214.9	617.68091926846
0	102735	215	617.68091926846
0	102783	215.1	621.69820057958
0	102831	215.2	621.69820057958
0	102879	215.3	621.69820057958
0	102926	215.4	621.69820057958
0	102974	215.5	621.69820057958
0	103022	215.6	621.69820057958
0	103069	215.7	621.69820057958
0	103117	215.8	621.69820057958
0	103165	215.9	621.69820057958
0	103212	216	621.69820057958
0	103259	216.1	625.6154818907
0	103307	216.2	625.6154818907
0	103355	216.3	625.6154818907
0	103403	216.4	625.6154818907
0	103451	216.5	625.6154818907
0	103499	216.6	625.6154818907
0	103547	216.7	625.6154818907
0	103595	216.8	625.6154818907
0	103628	216.9	625.6154818907
0	103676	217	625.6154818907
0	103709	217.1	629.63276320182
0	103757	217.2	629.63276320182
0	103805	217.3	629.63276320182
0	103853	217.4	629.63276320182
0	103886	217.5	629.63276320182
0	103933	217.6	629.63276320182
0	103981	217.7	629.63276320182
0	104028	217.8	629.63276320182
0	104075	217.9	629.63276320182
0	104122	218	629.63276320182
0	104169	218.1	633.65004451294
0	104217	218.2	633.65004451294
0	104265	218.3	633.65004451294
0	104312	218.4	633.65004451294
0	104360	218.5	633.65004451294
0	104408	218.6	633.65004451294
0	104455	218.7	633.65004451294
0	104502	218.8	633.65004451294
0	104550	218.9	633.65004451294
0	104583	219	633.65004451294

