version 3
run General-0-20220618-00:24:31-12045
attr configname General
attr datetime 20220618-00:24:31
attr datetimef 20220618-002431
attr experiment General
attr inifile omnetpp.ini
attr iterationvars ""
attr iterationvarsd ""
attr iterationvarsf ""
attr measurement ""
attr network myTestNetwork
attr processid 12045
attr repetition 0
attr replication #0
attr resultdir results
attr runnumber 0
attr seedset 0
config image-path ../../../../../Documents/inet/images:../../../../../Documents/veins/images
config cmdenv-express-mode true
config cmdenv-autoflush true
config cmdenv-status-frequency 0.1s
config **.cmdenv-log-level info
config ned-path .
config image-path ../../images
config network myTestNetwork
config debug-on-errors true
config print-undisposed true
config sim-time-limit 2000s
config **.scalar-recording true
config **.vector-recording true
config *.playgroundSizeX 5000m
config *.playgroundSizeY 5000m
config *.playgroundSizeZ 50m
config *.annotations.draw true
config *.manager.updateInterval 0.1s
config *.manager.host "\"localhost\""
config *.manager.port 9999
config *.manager.autoShutdown true
config *.manager.launchConfig "xmldoc(\"square.launchd.xml\")"
config *.rsu[0].mobility.x 100
config *.rsu[0].mobility.y 100
config *.rsu[0].mobility.z 3
config *.rsu[*].applType "\"RSUControlApp\""
config *.rsu[*].appl.headerLength "80 bit"
config *.rsu[*].appl.sendBeacons false
config *.rsu[*].appl.dataOnSch false
config *.rsu[*].nic.phy80211p.antennaOffsetZ "0 m"
config *.connectionManager.sendDirect true
config *.connectionManager.maxInterfDist 2600m
config *.connectionManager.drawMaxIntfDist false
config *.**.nic.mac1609_4.useServiceChannel true
config *.**.nic.mac1609_4.txPower 20mW
config *.**.nic.mac1609_4.bitrate 6Mbps
config *.**.nic.phy80211p.minPowerLevel -110dBm
config *.**.nic.phy80211p.useNoiseFloor true
config *.**.nic.phy80211p.noiseFloor -98dBm
config *.**.nic.phy80211p.decider "xmldoc(\"config.xml\")"
config *.**.nic.phy80211p.analogueModels "xmldoc(\"config.xml\")"
config *.**.nic.phy80211p.usePropagationDelay true
config *.**.nic.phy80211p.antenna "xmldoc(\"antenna.xml\", \"/root/Antenna[@id='monopole']\")"
config *.node[*].nic.phy80211p.antennaOffsetY "0 m"
config *.node[*].nic.phy80211p.antennaOffsetZ "1.895 m"
config *.node[*].applType "\"VehicleControlApp\""
config *.node[*].appl.headerLength "80 bit"
config *.node[*].appl.sendBeacons false
config *.node[*].appl.dataOnSch true
config *.node[*].appl.beaconInterval 0.1s
config *.node[*].veinsmobility.x 0
config *.node[*].veinsmobility.y 0
config *.node[*].veinsmobility.z 0
config *.node[*].veinsmobility.setHostSpeed false
config *.node[*0].veinsmobility.accidentCount 0

vector 0 myTestNetwork.node[0].veinsmobility posx ETV
vector 1 myTestNetwork.node[0].veinsmobility posy ETV
vector 2 myTestNetwork.node[0].veinsmobility speed ETV
vector 3 myTestNetwork.node[0].veinsmobility acceleration ETV
vector 4 myTestNetwork.node[0].veinsmobility co2emission ETV
vector 5 myTestNetwork.node[1].veinsmobility posx ETV
vector 6 myTestNetwork.node[1].veinsmobility posy ETV
vector 7 myTestNetwork.node[1].veinsmobility speed ETV
vector 8 myTestNetwork.node[1].veinsmobility acceleration ETV
vector 9 myTestNetwork.node[1].veinsmobility co2emission ETV
vector 10 myTestNetwork.node[2].veinsmobility posx ETV
vector 11 myTestNetwork.node[2].veinsmobility posy ETV
vector 12 myTestNetwork.node[2].veinsmobility speed ETV
vector 13 myTestNetwork.node[2].veinsmobility acceleration ETV
vector 14 myTestNetwork.node[2].veinsmobility co2emission ETV
vector 15 myTestNetwork.node[3].veinsmobility posx ETV
vector 16 myTestNetwork.node[3].veinsmobility posy ETV
vector 17 myTestNetwork.node[3].veinsmobility speed ETV
vector 18 myTestNetwork.node[3].veinsmobility acceleration ETV
vector 19 myTestNetwork.node[3].veinsmobility co2emission ETV
vector 20 myTestNetwork.node[4].veinsmobility posx ETV
vector 21 myTestNetwork.node[4].veinsmobility posy ETV
vector 22 myTestNetwork.node[4].veinsmobility speed ETV
vector 23 myTestNetwork.node[4].veinsmobility acceleration ETV
vector 24 myTestNetwork.node[4].veinsmobility co2emission ETV
4	56	0.3	0.973
4	104	0.4	0.973
4	152	0.5	0.973
4	200	0.6	0.973
4	248	0.7	0.973
4	296	0.8	0.973
4	344	0.9	0.973
4	392	1	0.973
4	440	1.1	17.528647651195
4	488	1.2	1.2370476511949
4	536	1.3	1.2370476511949
4	584	1.4	1.2370476511949
4	632	1.5	1.2370476511949
4	680	1.6	1.2370476511949
4	728	1.7	1.2370476511949
4	776	1.8	1.2370476511949
4	824	1.9	1.2370476511949
4	872	2	1.2370476511949
4	920	2.1	21.405767148123
4	968	2.2	1.3336271612027
4	1016	2.3	1.3336271612027
4	1064	2.4	1.3336271612027
4	1112	2.5	1.3336271612027
4	1160	2.6	1.3336271612027
4	1208	2.7	1.3336271612027
4	1256	2.8	1.3336271612027
4	1304	2.9	1.3336271612027
4	1352	3	1.3336271612027
4	1400	3.1	1.3336271612027
4	1468	3.2	1.3336271612027
4	1578	3.3	1.3336271612027
4	1679	3.4	1.3336271612027
4	1782	3.5	1.3336271612027
4	1876	3.6	1.3336271612027
4	1979	3.7	1.3336271612027
4	2080	3.8	1.3336271612027
4	2183	3.9	1.3336271612027
4	2284	4	1.3336271612027
4	2387	4.1	1.3336271612027
4	2488	4.2	1.3336271612027
4	2598	4.3	1.3336271612027
4	2699	4.4	1.3336271612027
4	2802	4.5	1.3336271612027
4	2903	4.6	1.3336271612027
4	3013	4.7	1.3336271612027
4	3114	4.8	1.3336271612027
4	3224	4.9	1.3336271612027
4	3325	5	1.3336271612027
4	3435	5.1	1.3336271612027
4	3529	5.2	1.3336271612027
4	3639	5.3	1.3336271612027
4	3733	5.4	1.3336271612027
4	3836	5.5	1.3336271612027
4	3937	5.6	1.3336271612027
4	4047	5.7	1.3336271612027
4	4148	5.8	1.3336271612027
4	4251	5.9	1.3336271612027
4	4352	6	1.3336271612027
4	4455	6.1	1.3336271612027
4	4556	6.2	1.3336271612027
4	4666	6.3	1.3336271612027
4	4767	6.4	1.3336271612027
4	4870	6.5	1.3336271612027
4	4964	6.6	1.3336271612027
4	5074	6.7	1.3336271612027
4	5175	6.8	1.3336271612027
4	5285	6.9	1.3336271612027
4	5386	7	1.3336271612027
4	5496	7.1	1.3336271612027
4	5627	7.2	1.3336271612027
4	5806	7.3	1.3336271612027
4	6007	7.4	1.3336271612027
4	6184	7.5	1.3336271612027
4	6360	7.6	1.3336271612027
4	6537	7.7	1.3336271612027
4	6723	7.8	1.3336271612027
4	6909	7.9	1.3336271612027
4	7095	8	1.3336271612027
4	7264	8.1	1.3336271612027
4	7450	8.2	1.3336271612027
4	7619	8.3	1.3336271612027
4	7788	8.4	1.3336271612027
4	7964	8.5	1.3336271612027
4	8141	8.6	1.3336271612027
4	8327	8.7	1.3336271612027
4	8503	8.8	1.3336271612027
4	8689	8.9	1.3336271612027
4	8875	9	1.3336271612027
4	9061	9.1	1.3336271612027
4	9238	9.2	1.3336271612027
4	9414	9.3	1.3336271612027
4	9590	9.4	1.3336271612027
4	9776	9.5	1.3336271612027
4	9952	9.6	1.3336271612027
4	10138	9.7	1.3336271612027
4	10314	9.8	1.3336271612027
4	10490	9.9	1.3336271612027
4	10666	10	1.3336271612027
4	10842	10.1	1.3336271612027
4	11018	10.2	1.3336271612027
4	11194	10.3	1.3336271612027
4	11371	10.4	1.3336271612027
4	11557	10.5	1.3336271612027
4	11733	10.6	1.3336271612027
4	11919	10.7	1.3336271612027
4	12105	10.8	1.3336271612027
4	12291	10.9	1.3336271612027
4	12477	11	1.3336271612027
4	12663	11.1	1.3336271612027
4	12849	11.2	1.3336271612027
4	13025	11.3	1.3336271612027
4	13201	11.4	1.3336271612027
4	13387	11.5	1.3336271612027
4	13556	11.6	1.3336271612027
4	13732	11.7	1.3336271612027
4	13918	11.8	1.3336271612027
4	14087	11.9	1.3336271612027
4	14263	12	1.3336271612027
4	14449	12.1	1.3336271612027
4	14618	12.2	1.3336271612027
4	14794	12.3	1.3336271612027
4	14980	12.4	1.3336271612027
4	15156	12.5	1.3336271612027
4	15342	12.6	1.3336271612027
4	15519	12.7	1.3336271612027
4	15695	12.8	1.3336271612027
4	15881	12.9	1.3336271612027
4	16057	13	1.3336271612027
4	16234	13.1	1.3336271612027
4	16410	13.2	1.3336271612027
4	16596	13.3	1.3336271612027
4	16773	13.4	1.3336271612027
4	16950	13.5	1.3336271612027
4	17126	13.6	1.3336271612027
4	17303	13.7	1.3336271612027
4	17480	13.8	1.3336271612027
4	17666	13.9	1.3336271612027
4	17852	14	1.3336271612027
4	18038	14.1	1.3336271612027
4	18254	14.2	1.3336271612027
4	18548	14.3	1.3336271612027
4	18849	14.4	1.3336271612027
4	19163	14.5	1.3336271612027
4	19468	14.6	1.3336271612027
4	19781	14.7	1.3336271612027
4	20095	14.8	1.3336271612027
4	20398	14.9	1.3336271612027
4	20700	15	1.3336271612027
4	21005	15.1	1.3336271612027
4	21317	15.2	1.3336271612027
4	21630	15.3	1.3336271612027
4	21955	15.4	1.3336271612027
4	22256	15.5	1.3336271612027
4	22569	15.6	1.3336271612027
4	22894	15.7	1.3336271612027
4	23205	15.8	1.3336271612027
4	23515	15.9	1.3336271612027
4	23815	16	1.3336271612027
4	24129	16.1	1.3336271612027
4	24439	16.2	1.3336271612027
4	24753	16.3	1.3336271612027
4	25056	16.4	1.3336271612027
4	25370	16.5	1.3336271612027
4	25684	16.6	1.3336271612027
4	26009	16.7	1.3336271612027
4	26319	16.8	1.3336271612027
4	26633	16.9	1.3336271612027
4	26945	17	1.3336271612027
4	27257	17.1	1.3336271612027
4	27562	17.2	1.3336271612027
4	27865	17.3	1.3336271612027
4	28179	17.4	1.3336271612027
4	28482	17.5	1.3336271612027
4	28787	17.6	1.3336271612027
4	29100	17.7	1.3336271612027
4	29425	17.8	1.3336271612027
4	29750	17.9	1.3336271612027
4	30064	18	1.3336271612027
4	30367	18.1	1.3336271612027
4	30668	18.2	1.3336271612027
4	30993	18.3	1.3336271612027
4	31295	18.4	1.3336271612027
4	31598	18.5	1.3336271612027
4	31911	18.6	1.3336271612027
4	32210	18.7	1.3336271612027
4	32520	18.8	1.3336271612027
4	32832	18.9	1.3336271612027
4	33145	19	1.3336271612027
4	33457	19.1	1.3336271612027
4	33770	19.2	1.3336271612027
4	34082	19.3	1.3336271612027
4	34385	19.4	1.3336271612027
4	34697	19.5	1.3336271612027
4	35009	19.6	1.3336271612027
4	35323	19.7	1.3336271612027
4	35648	19.8	1.3336271612027
4	35951	19.9	1.3336271612027
4	36261	20	1.3336271612027
4	36573	20.1	1.3336271612027
4	36885	20.2	1.3336271612027
4	37187	20.3	1.3336271612027
4	37498	20.4	1.3336271612027
4	37800	20.5	1.3336271612027
4	38102	20.6	1.3336271612027
4	38404	20.7	1.3336271612027
4	38729	20.8	1.3336271612027
4	39042	20.9	1.3336271612027
4	39335	21	1.3336271612027
4	39637	21.1	1.3336271612027
4	39939	21.2	1.3336271612027
4	40251	21.3	1.3336271612027
4	40562	21.4	1.3336271612027
4	40864	21.5	1.3336271612027
4	41176	21.6	1.3336271612027
4	41487	21.7	1.3336271612027
4	41811	21.8	1.3336271612027
4	42123	21.9	1.3336271612027
4	42425	22	1.3336271612027
4	42749	22.1	1.3336271612027
4	43073	22.2	1.3336271612027
4	43384	22.3	1.3336271612027
4	43695	22.4	1.3336271612027
4	44007	22.5	1.3336271612027
4	44305	22.6	1.3336271612027
4	44618	22.7	1.3336271612027
4	44925	22.8	1.3336271612027
4	45233	22.9	1.3336271612027
4	45541	23	1.3336271612027
4	45842	23.1	1.3336271612027
4	46193	23.2	1.3336271612027
4	46599	23.3	1.3336271612027
4	47028	23.4	1.3336271612027
4	47428	23.5	1.3336271612027
4	47847	23.6	1.3336271612027
4	48265	23.7	1.3336271612027
4	48681	23.8	1.3336271612027
4	49110	23.9	1.3336271612027
4	49532	24	1.3336271612027
4	49950	24.1	1.3336271612027
4	50362	24.2	1.3336271612027
4	50772	24.3	1.3336271612027
4	51192	24.4	1.3336271612027
4	51604	24.5	1.3336271612027
4	52021	24.6	1.3336271612027
4	52429	24.7	1.3336271612027
4	52863	24.8	1.3336271612027
4	53287	24.9	1.3336271612027
4	53699	25	1.3336271612027
4	54134	25.1	1.3336271612027
4	54562	25.2	1.3336271612027
4	54970	25.3	1.3336271612027
4	55388	25.4	1.3336271612027
4	55813	25.5	1.3336271612027
4	56232	25.6	1.3336271612027
4	56653	25.7	1.3336271612027
4	57072	25.8	1.3336271612027
4	57483	25.9	1.3336271612027
4	57913	26	1.3336271612027
4	58342	26.1	1.3336271612027
4	58777	26.2	1.3336271612027
4	59199	26.3	1.3336271612027
4	59622	26.4	1.3336271612027
4	60045	26.5	1.3336271612027
4	60474	26.6	1.3336271612027
4	60896	26.7	1.3336271612027
4	61318	26.8	1.3336271612027
4	61737	26.9	1.3336271612027
4	62145	27	1.3336271612027
4	62568	27.1	1.3336271612027
4	63002	27.2	1.3336271612027
4	63414	27.3	1.3336271612027
4	63835	27.4	1.3336271612027
4	64259	27.5	1.3336271612027
4	64693	27.6	1.3336271612027
4	65128	27.7	1.3336271612027
4	65551	27.8	1.3336271612027
4	65963	27.9	1.3336271612027
4	66364	28	1.3336271612027
4	66789	28.1	1.3336271612027
4	67209	28.2	1.3336271612027
4	67621	28.3	1.3336271612027
4	68057	28.4	1.3336271612027
4	68457	28.5	1.3336271612027
4	68877	28.6	1.3336271612027
4	69295	28.7	1.3336271612027
4	69718	28.8	1.3336271612027
4	70136	28.9	1.3336271612027
4	70554	29	1.3336271612027
4	70965	29.1	1.3336271612027
4	71384	29.2	1.3336271612027
4	71795	29.3	1.3336271612027
4	72213	29.4	1.3336271612027
4	72634	29.5	1.3336271612027
4	73053	29.6	1.3336271612027
4	73465	29.7	1.3336271612027
4	73873	29.8	1.3336271612027
4	74289	29.9	1.3336271612027
4	74723	30	1.3336271612027
4	75145	30.1	1.3336271612027
4	75566	30.2	1.3336271612027
4	75999	30.3	1.3336271612027
4	76407	30.4	1.3336271612027
4	76826	30.5	1.3336271612027
4	77259	30.6	1.3336271612027
4	77677	30.7	1.3336271612027
4	78100	30.8	1.3336271612027
4	78533	30.9	1.3336271612027
4	78966	31	1.3336271612027
4	79380	31.1	1.3336271612027
4	79790	31.2	1.3336271612027
4	80211	31.3	1.3336271612027
4	80618	31.4	1.3336271612027
4	81052	31.5	1.3336271612027
4	81485	31.6	1.3336271612027
4	81906	31.7	1.3336271612027
4	82324	31.8	1.3336271612027
4	82741	31.9	1.3336271612027
4	83151	32	1.3336271612027
4	83573	32.1	1.3336271612027
4	83989	32.2	1.3336271612027
4	84422	32.3	1.3336271612027
4	84840	32.4	1.3336271612027
4	85260	32.5	1.3336271612027
4	85681	32.6	1.3336271612027
4	86101	32.7	1.3336271612027
4	86521	32.8	1.3336271612027
4	86927	32.9	1.3336271612027
4	87345	33	1.3336271612027
4	87767	33.1	1.3336271612027
4	88185	33.2	1.3336271612027
4	88604	33.3	1.3336271612027
4	89023	33.4	1.3336271612027
4	89441	33.5	1.3336271612027
4	89859	33.6	1.3336271612027
4	90276	33.7	1.3336271612027
4	90693	33.8	1.3336271612027
4	91100	33.9	1.3336271612027
4	91520	34	1.3336271612027
4	91926	34.1	1.3336271612027
4	92359	34.2	1.3336271612027
4	92769	34.3	1.3336271612027
4	93188	34.4	1.3336271612027
4	93609	34.5	1.3336271612027
4	94042	34.6	1.3336271612027
4	94460	34.7	1.3336271612027
4	94882	34.8	1.3336271612027
4	95314	34.9	1.3336271612027
4	95748	35	1.3336271612027
4	96154	35.1	1.3336271612027
4	96588	35.2	1.3336271612027
4	96994	35.3	1.3336271612027
4	97413	35.4	1.3336271612027
4	97824	35.5	1.3336271612027
4	98252	35.6	1.3336271612027
4	98672	35.7	1.3336271612027
4	99095	35.8	1.3336271612027
4	99516	35.9	1.3336271612027
4	99949	36	1.3336271612027
4	100372	36.1	1.3336271612027
4	100794	36.2	1.3336271612027
4	101222	36.3	1.3336271612027
4	101641	36.4	1.3336271612027
4	102059	36.5	1.3336271612027
4	102493	36.6	1.3336271612027
4	102927	36.7	1.3336271612027
4	103346	36.8	1.3336271612027
4	103758	36.9	1.3336271612027
4	104169	37	1.3336271612027
4	104587	37.1	1.3336271612027
4	105021	37.2	1.3336271612027
4	105456	37.3	1.3336271612027
4	105876	37.4	1.3336271612027
4	106285	37.5	1.3336271612027
4	106702	37.6	1.3336271612027
4	107114	37.7	1.3336271612027
4	107525	37.8	1.3336271612027
4	107948	37.9	1.3336271612027
4	108365	38	1.3336271612027
4	108784	38.1	1.3336271612027
4	109204	38.2	1.3336271612027
4	109638	38.3	1.3336271612027
4	110059	38.4	1.3336271612027
4	110494	38.5	1.3336271612027
4	110909	38.6	1.3336271612027
4	111343	38.7	1.3336271612027
4	111762	38.8	1.3336271612027
4	112197	38.9	1.3336271612027
4	112619	39	1.3336271612027
4	113038	39.1	1.3336271612027
4	113458	39.2	1.3336271612027
4	113893	39.3	1.3336271612027
4	114312	39.4	1.3336271612027
4	114732	39.5	1.3336271612027
4	115154	39.6	1.3336271612027
4	115560	39.7	1.3336271612027
4	115982	39.8	1.3336271612027
4	116411	39.9	1.3336271612027
4	116834	40	1.3336271612027
4	117242	40.1	1.3336271612027
4	117653	40.2	1.3336271612027
4	118074	40.3	1.3336271612027
4	118496	40.4	1.3336271612027
4	118913	40.5	1.3336271612027
4	119334	40.6	1.3336271612027
4	119756	40.7	1.3336271612027
4	120167	40.8	1.3336271612027
4	120601	40.9	1.3336271612027
4	121024	41	1.3336271612027
4	121443	41.1	1.3336271612027
4	121851	41.2	1.3336271612027
4	122273	41.3	1.3336271612027
4	122684	41.4	1.3336271612027
4	123107	41.5	1.3336271612027
4	123518	41.6	1.3336271612027
4	123937	41.7	1.3336271612027
4	124354	41.8	1.3336271612027
4	124772	41.9	1.3336271612027
4	125206	42	1.3336271612027
4	125640	42.1	1.3336271612027
4	126047	42.2	1.3336271612027
4	126465	42.3	1.3336271612027
4	126884	42.4	1.3336271612027
4	127318	42.5	1.3336271612027
4	127737	42.6	1.3336271612027
4	128166	42.7	1.3336271612027
4	128615	42.8	1.3336271612027
4	129033	42.9	1.3336271612027
4	129453	43	1.3336271612027
4	129871	43.1	1.3336271612027
4	130294	43.2	1.3336271612027
4	130713	43.3	1.3336271612027
4	131141	43.4	1.3336271612027
4	131564	43.5	1.3336271612027
4	131987	43.6	1.3336271612027
4	132421	43.7	1.3336271612027
4	132843	43.8	1.3336271612027
4	133266	43.9	1.3336271612027
4	133684	44	1.3336271612027
4	134118	44.1	1.3336271612027
4	134536	44.2	1.3336271612027
4	134955	44.3	1.3336271612027
4	135374	44.4	1.3336271612027
4	135794	44.5	1.3336271612027
4	136228	44.6	1.3336271612027
4	136655	44.7	1.3336271612027
4	137075	44.8	1.3336271612027
4	137496	44.9	1.3336271612027
4	137914	45	1.3336271612027
4	138314	45.1	1.3336271612027
4	138733	45.2	1.3336271612027
4	139144	45.3	1.3336271612027
4	139567	45.4	1.3336271612027
4	139981	45.5	1.3336271612027
4	140400	45.6	1.3336271612027
4	140807	45.7	1.3336271612027
4	141213	45.8	1.3336271612027
4	141635	45.9	1.3336271612027
4	142054	46	1.3336271612027
4	142474	46.1	1.3336271612027
4	142892	46.2	1.3336271612027
4	143324	46.3	1.3336271612027
4	143735	46.4	1.3336271612027
4	144157	46.5	1.3336271612027
4	144591	46.6	1.3336271612027
4	145024	46.7	1.3336271612027
4	145431	46.8	1.3336271612027
4	145853	46.9	1.3336271612027
4	146259	47	1.3336271612027
4	146686	47.1	1.3336271612027
4	147112	47.2	1.3336271612027
4	147519	47.3	1.3336271612027
4	147925	47.4	1.3336271612027
4	148346	47.5	1.3336271612027
4	148779	47.6	1.3336271612027
4	149198	47.7	1.3336271612027
4	149632	47.8	1.3336271612027
4	150042	47.9	1.3336271612027
4	150463	48	1.3336271612027
4	150884	48.1	1.3336271612027
4	151291	48.2	1.3336271612027
4	151708	48.3	1.3336271612027
4	152129	48.4	1.3336271612027
4	152550	48.5	1.3336271612027
4	152971	48.6	1.3336271612027
4	153405	48.7	1.3336271612027
4	153826	48.8	1.3336271612027
4	154247	48.9	1.3336271612027
4	154668	49	1.3336271612027
4	155073	49.1	1.3336271612027
4	155483	49.2	1.3336271612027
4	155904	49.3	1.3336271612027
4	156337	49.4	1.3336271612027
4	156764	49.5	1.3336271612027
4	157198	49.6	1.3336271612027
4	157620	49.7	1.3336271612027
4	158030	49.8	1.3336271612027
4	158448	49.9	1.3336271612027
4	158858	50	1.3336271612027
4	159263	50.1	1.3336271612027
4	159673	50.2	1.3336271612027
4	160083	50.3	1.3336271612027
4	160510	50.4	1.3336271612027
4	160928	50.5	1.3336271612027
4	161349	50.6	1.3336271612027
4	161782	50.7	1.3336271612027
4	162214	50.8	1.3336271612027
4	162632	50.9	1.3336271612027
4	163053	51	1.3336271612027
4	163466	51.1	1.3336271612027
4	163882	51.2	1.3336271612027
4	164303	51.3	1.3336271612027
4	164713	51.4	1.3336271612027
4	165123	51.5	1.3336271612027
4	165544	51.6	1.3336271612027
4	165976	51.7	1.3336271612027
4	166381	51.8	1.3336271612027
4	166798	51.9	1.3336271612027
4	167231	52	1.3336271612027
4	167652	52.1	1.3336271612027
4	168069	52.2	1.3336271612027
4	168503	52.3	1.3336271612027
4	168936	52.4	1.3336271612027
4	169357	52.5	1.3336271612027
4	169778	52.6	1.3336271612027
4	170196	52.7	1.3336271612027
4	170615	52.8	1.3336271612027
4	171032	52.9	1.3336271612027
4	171439	53	1.3336271612027
4	171858	53.1	1.3336271612027
4	172279	53.2	1.3336271612027
4	172713	53.3	1.3336271612027
4	173131	53.4	1.3336271612027
4	173538	53.5	1.3336271612027
4	173952	53.6	1.3336271612027
4	174367	53.7	1.3336271612027
4	174788	53.8	1.3336271612027
4	175209	53.9	1.3336271612027
4	175616	54	1.3336271612027
4	176050	54.1	1.3336271612027
4	176469	54.2	1.3336271612027
4	176882	54.3	1.3336271612027
4	177299	54.4	1.3336271612027
4	177720	54.5	1.3336271612027
4	178147	54.6	1.3336271612027
4	178581	54.7	1.3336271612027
4	178999	54.8	1.3336271612027
4	179434	54.9	1.3336271612027
4	179855	55	1.3336271612027
4	180271	55.1	1.3336271612027
4	180678	55.2	1.3336271612027
4	181098	55.3	1.3336271612027
4	181508	55.4	1.3336271612027
4	181924	55.5	1.3336271612027
4	182345	55.6	1.3336271612027
4	182755	55.7	1.3336271612027
4	183174	55.8	1.3336271612027
4	183594	55.9	1.3336271612027
4	184022	56	1.3336271612027
4	184443	56.1	1.3336271612027
4	184861	56.2	1.3336271612027
4	185293	56.3	1.3336271612027
4	185714	56.4	1.3336271612027
4	186131	56.5	1.3336271612027
4	186564	56.6	1.3336271612027
4	186985	56.7	1.3336271612027
4	187419	56.8	1.3336271612027
4	187852	56.9	1.3336271612027
4	188273	57	1.3336271612027
4	188701	57.1	1.3336271612027
4	189117	57.2	1.3336271612027
4	189538	57.3	1.3336271612027
4	189944	57.4	1.3336271612027
4	190354	57.5	1.3336271612027
4	190789	57.6	1.3336271612027
4	191207	57.7	1.3336271612027
4	191641	57.8	1.3336271612027
4	192051	57.9	1.3336271612027
4	192472	58	1.3336271612027
4	192905	58.1	1.3336271612027
4	193325	58.2	1.3336271612027
4	193751	58.3	1.3336271612027
4	194169	58.4	1.3336271612027
4	194590	58.5	1.3336271612027
4	194996	58.6	1.3336271612027
4	195428	58.7	1.3336271612027
4	195855	58.8	1.3336271612027
4	196288	58.9	1.3336271612027
4	196710	59	1.3336271612027
4	197116	59.1	1.3336271612027
4	197537	59.2	1.3336271612027
4	197955	59.3	1.3336271612027
4	198372	59.4	1.3336271612027
4	198798	59.5	1.3336271612027
4	199216	59.6	1.3336271612027
4	199643	59.7	1.3336271612027
4	200065	59.8	1.3336271612027
4	200498	59.9	1.3336271612027
4	200916	60	1.3336271612027
4	201349	60.1	1.3336271612027
4	201783	60.2	1.3336271612027
4	202193	60.3	1.3336271612027
4	202614	60.4	1.3336271612027
4	203031	60.5	1.3336271612027
4	203464	60.6	1.3336271612027
4	203898	60.7	1.3336271612027
4	204303	60.8	1.3336271612027
4	204723	60.9	1.3336271612027
4	205143	61	1.3336271612027
4	205560	61.1	1.3336271612027
4	205981	61.2	1.3336271612027
4	206391	61.3	1.3336271612027
4	206813	61.4	1.3336271612027
4	207230	61.5	1.3336271612027
4	207644	61.6	1.3336271612027
4	208062	61.7	1.3336271612027
4	208484	61.8	1.3336271612027
4	208901	61.9	1.3336271612027
4	209307	62	1.3336271612027
4	209717	62.1	1.3336271612027
4	210137	62.2	1.3336271612027
4	210556	62.3	1.3336271612027
4	210962	62.4	1.3336271612027
4	211410	62.5	1.3336271612027
4	211831	62.6	1.3336271612027
4	212264	62.7	1.3336271612027
4	212698	62.8	1.3336271612027
4	213117	62.9	1.3336271612027
4	213522	63	1.3336271612027
4	213956	63.1	1.3336271612027
4	214377	63.2	1.3336271612027
4	214795	63.3	1.3336271612027
4	215229	63.4	1.3336271612027
4	215651	63.5	1.3336271612027
4	216072	63.6	1.3336271612027
4	216506	63.7	1.3336271612027
4	216924	63.8	1.3336271612027
4	217330	63.9	1.3336271612027
4	217748	64	1.3336271612027
4	218170	64.1	1.3336271612027
4	218580	64.2	1.3336271612027
4	219001	64.3	1.3336271612027
4	219408	64.4	1.3336271612027
4	219827	64.5	1.3336271612027
4	220248	64.6	1.3336271612027
4	220667	64.7	1.3336271612027
4	221087	64.8	1.3336271612027
4	221493	64.9	1.3336271612027
4	221914	65	1.3336271612027
4	222347	65.1	1.3336271612027
4	222768	65.2	1.3336271612027
4	223186	65.3	1.3336271612027
4	223592	65.4	1.3336271612027
4	224026	65.5	1.3336271612027
4	224436	65.6	1.3336271612027
4	224858	65.7	1.3336271612027
4	225293	65.8	1.3336271612027
4	225711	65.9	1.3336271612027
4	226132	66	1.3336271612027
4	226549	66.1	1.3336271612027
4	226958	66.2	1.3336271612027
4	227391	66.3	1.3336271612027
4	227820	66.4	1.3336271612027
4	228241	66.5	1.3336271612027
4	228663	66.6	1.3336271612027
4	229082	66.7	1.3336271612027
4	229502	66.8	1.3336271612027
4	229921	66.9	1.3336271612027
4	230343	67	1.3336271612027
4	230764	67.1	1.3336271612027
4	231185	67.2	1.3336271612027
4	231606	67.3	1.3336271612027
4	232016	67.4	1.3336271612027
4	232437	67.5	1.3336271612027
4	232873	67.6	1.3336271612027
4	233279	67.7	1.3336271612027
4	233712	67.8	1.3336271612027
4	234130	67.9	1.3336271612027
4	234565	68	1.3336271612027
4	235000	68.1	1.3336271612027
4	235422	68.2	1.3336271612027
4	235840	68.3	1.3336271612027
4	236265	68.4	1.3336271612027
4	236682	68.5	1.3336271612027
4	237092	68.6	1.3336271612027
4	237498	68.7	1.3336271612027
4	237897	68.8	1.3336271612027
4	238313	68.9	1.3336271612027
4	238734	69	1.3336271612027
4	239142	69.1	1.3336271612027
4	239562	69.2	1.3336271612027
4	239992	69.3	1.3336271612027
4	240413	69.4	1.3336271612027
4	240848	69.5	1.3336271612027
4	241270	69.6	1.3336271612027
4	241692	69.7	1.3336271612027
4	242126	69.8	1.3336271612027
4	242559	69.9	1.3336271612027
4	242980	70	1.3336271612027
4	243402	70.1	1.3336271612027
4	243818	70.2	1.3336271612027
4	244236	70.3	1.3336271612027
4	244654	70.4	1.3336271612027
4	245073	70.5	1.3336271612027
4	245485	70.6	1.3336271612027
4	245919	70.7	1.3336271612027
4	246339	70.8	1.3336271612027
4	246774	70.9	1.3336271612027
4	247193	71	1.3336271612027
4	247610	71.1	1.3336271612027
4	248032	71.2	1.3336271612027
4	248443	71.3	1.3336271612027
4	248876	71.4	1.3336271612027
4	249310	71.5	1.3336271612027
4	249718	71.6	1.3336271612027
4	250140	71.7	1.3336271612027
4	250562	71.8	1.3336271612027
4	250984	71.9	1.3336271612027
4	251405	72	1.3336271612027
4	251822	72.1	1.3336271612027
4	252233	72.2	1.3336271612027
4	252643	72.3	1.3336271612027
4	253052	72.4	1.3336271612027
4	253474	72.5	1.3336271612027
4	253893	72.6	1.3336271612027
4	254308	72.7	1.3336271612027
4	254727	72.8	1.3336271612027
4	255144	72.9	1.3336271612027
4	255566	73	1.3336271612027
4	255984	73.1	1.3336271612027
4	256390	73.2	1.3336271612027
4	256812	73.3	1.3336271612027
4	257222	73.4	1.3336271612027
4	257646	73.5	1.3336271612027
4	258070	73.6	1.3336271612027
4	258491	73.7	1.3336271612027
4	258902	73.8	1.3336271612027
4	259308	73.9	1.3336271612027
4	259726	74	1.3336271612027
4	260148	74.1	1.3336271612027
4	260566	74.2	1.3336271612027
4	260972	74.3	1.3336271612027
4	261392	74.4	1.3336271612027
4	261811	74.5	1.3336271612027
4	262233	74.6	1.3336271612027
4	262654	74.7	1.3336271612027
4	263070	74.8	1.3336271612027
4	263503	74.9	1.3336271612027
4	263909	75	1.3336271612027
4	264343	75.1	1.3336271612027
4	264778	75.2	1.3336271612027
4	265199	75.3	1.3336271612027
4	265618	75.4	1.3336271612027
4	266037	75.5	1.3336271612027
4	266448	75.6	1.3336271612027
4	266856	75.7	1.3336271612027
4	267275	75.8	1.3336271612027
4	267686	75.9	1.3336271612027
4	268096	76	1.3336271612027
4	268512	76.1	1.3336271612027
4	268930	76.2	1.3336271612027
4	269339	76.3	1.3336271612027
4	269745	76.4	1.3336271612027
4	270163	76.5	1.3336271612027
4	270585	76.6	1.3336271612027
4	270993	76.7	1.3336271612027
4	271399	76.8	1.3336271612027
4	271810	76.9	1.3336271612027
4	272216	77	1.3336271612027
4	272623	77.1	1.3336271612027
4	273042	77.2	1.3336271612027
4	273464	77.3	1.3336271612027
4	273900	77.4	1.3336271612027
4	274333	77.5	1.3336271612027
4	274750	77.6	1.3336271612027
4	275172	77.7	1.3336271612027
4	275605	77.8	1.3336271612027
4	276013	77.9	1.3336271612027
4	276435	78	1.3336271612027
4	276854	78.1	1.3336271612027
4	277272	78.2	1.3336271612027
4	277694	78.3	1.3336271612027
4	278117	78.4	1.3336271612027
4	278538	78.5	1.3336271612027
4	278960	78.6	1.3336271612027
4	279377	78.7	1.3336271612027
4	279799	78.8	1.3336271612027
4	280206	78.9	1.3336271612027
4	280622	79	1.3336271612027
4	281042	79.1	1.3336271612027
4	281465	79.2	1.3336271612027
4	281961	79.3	1.3336271612027
4	282453	79.4	1.3336271612027
4	282922	79.5	1.3336271612027
4	283357	79.6	1.3336271612027
4	283824	79.7	1.3336271612027
4	284246	79.8	1.3336271612027
4	284733	79.9	1.3336271612027
4	285226	80	1.3336271612027
4	285710	80.1	1.3336271612027
4	286195	80.2	1.3336271612027
4	286681	80.3	1.3336271612027
4	287172	80.4	1.3336271612027
4	287627	80.5	1.3336271612027
4	288062	80.6	1.3336271612027
4	288548	80.7	1.3336271612027
4	289050	80.8	1.3336271612027
4	289522	80.9	1.3336271612027
4	289991	81	1.3336271612027
4	290462	81.1	1.3336271612027
4	290896	81.2	1.3336271612027
4	291343	81.3	1.3336271612027
4	291774	81.4	1.3336271612027
4	292191	81.5	1.3336271612027
4	292668	81.6	1.3336271612027
4	293151	81.7	1.3336271612027
4	293605	81.8	1.3336271612027
4	294015	81.9	1.3336271612027
4	294476	82	1.3336271612027
4	294973	82.1	1.3336271612027
4	295442	82.2	1.3336271612027
4	295862	82.3	1.3336271612027
4	296317	82.4	1.3336271612027
4	296737	82.5	1.3336271612027
4	297148	82.6	1.3336271612027
4	297597	82.7	1.3336271612027
4	298015	82.8	1.3336271612027
4	298510	82.9	1.3336271612027
4	299002	83	1.3336271612027
4	299459	83.1	1.3336271612027
4	299894	83.2	1.3336271612027
4	300349	83.3	1.3336271612027
4	300768	83.4	1.3336271612027
4	301250	83.5	1.3336271612027
4	301661	83.6	1.3336271612027
4	302128	83.7	1.3336271612027
4	302528	83.8	1.3336271612027
4	302979	83.9	1.3336271612027
4	303397	84	1.3336271612027
4	303881	84.1	1.3336271612027
4	304287	84.2	1.3336271612027
4	304770	84.3	1.3336271612027
4	305240	84.4	1.3336271612027
4	305713	84.5	1.3336271612027
4	306206	84.6	1.3336271612027
4	306666	84.7	1.3336271612027
4	307100	84.8	1.3336271612027
4	307588	84.9	1.3336271612027
4	308067	85	1.3336271612027
4	308537	85.1	1.3336271612027
4	308959	85.2	1.3336271612027
4	309446	85.3	1.3336271612027
4	309936	85.4	1.3336271612027
4	310406	85.5	1.3336271612027
4	310813	85.6	1.3336271612027
4	311284	85.7	1.3336271612027
4	311706	85.8	1.3336271612027
4	312183	85.9	1.3336271612027
4	312663	86	1.3336271612027
4	313135	86.1	1.3336271612027
4	313626	86.2	1.3336271612027
4	314095	86.3	1.3336271612027
4	314518	86.4	1.3336271612027
4	314978	86.5	1.3336271612027
4	315400	86.6	1.3336271612027
4	315868	86.7	1.3336271612027
4	316291	86.8	1.3336271612027
4	316747	86.9	1.3336271612027
4	317154	87	1.3336271612027
4	317624	87.1	1.3336271612027
4	318055	87.2	1.3336271612027
4	318473	87.3	1.3336271612027
4	318960	87.4	1.3336271612027
4	319457	87.5	1.3336271612027
4	319928	87.6	1.3336271612027
4	320347	87.7	1.3336271612027
4	320862	87.8	1.3336271612027
4	321353	87.9	1.3336271612027
4	321821	88	1.3336271612027
4	322242	88.1	1.3336271612027
4	322713	88.2	1.3336271612027
4	323133	88.3	1.3336271612027
4	323621	88.4	1.3336271612027
4	324113	88.5	1.3336271612027
4	324600	88.6	1.3336271612027
4	325109	88.7	1.3336271612027
4	325580	88.8	1.3336271612027
4	325998	88.9	1.3336271612027
4	326480	89	1.3336271612027
4	326900	89.1	1.3336271612027
4	327386	89.2	1.3336271612027
4	327876	89.3	1.3336271612027
4	328344	89.4	1.3336271612027
4	328766	89.5	1.3336271612027
4	329234	89.6	1.3336271612027
4	329657	89.7	1.3336271612027
4	330143	89.8	1.3336271612027
4	330635	89.9	1.3336271612027
4	331101	90	1.3336271612027
4	331593	90.1	1.3336271612027
4	332050	90.2	1.3336271612027
4	332468	90.3	1.3336271612027
4	332953	90.4	1.3336271612027
4	333445	90.5	1.3336271612027
4	333901	90.6	1.3336271612027
4	334334	90.7	1.3336271612027
4	334802	90.8	1.3336271612027
4	335226	90.9	1.3336271612027
4	335697	91	1.3336271612027
4	336155	91.1	1.3336271612027
4	336653	91.2	1.3336271612027
4	337135	91.3	1.3336271612027
4	337627	91.4	1.3336271612027
4	338107	91.5	1.3336271612027
4	338589	91.6	1.3336271612027
4	339033	91.7	1.3336271612027
4	339463	91.8	1.3336271612027
4	339946	91.9	1.3336271612027
4	340353	92	1.3336271612027
4	340842	92.1	1.3336271612027
4	341366	92.2	1.3336271612027
4	341854	92.3	1.3336271612027
4	342388	92.4	1.3336271612027
4	342876	92.5	1.3336271612027
4	343340	92.6	1.3336271612027
4	343808	92.7	1.3336271612027
4	344230	92.8	1.3336271612027
4	344696	92.9	1.3336271612027
4	345104	93	1.3336271612027
4	345572	93.1	1.3336271612027
4	345981	93.2	1.3336271612027
4	346439	93.3	1.3336271612027
4	346850	93.4	1.3336271612027
4	347321	93.5	1.3336271612027
4	347756	93.6	1.3336271612027
4	348227	93.7	1.3336271612027
4	348634	93.8	1.3336271612027
4	349101	93.9	1.3336271612027
4	349561	94	1.3336271612027
4	350030	94.1	1.3336271612027
4	350447	94.2	1.3336271612027
4	350917	94.3	1.3336271612027
4	351351	94.4	1.3336271612027
4	351794	94.5	1.3336271612027
4	352212	94.6	1.3336271612027
4	352685	94.7	1.3336271612027
4	353206	94.8	1.3336271612027
4	353678	94.9	1.3336271612027
4	354173	95	1.3336271612027
4	354650	95.1	1.3336271612027
4	355131	95.2	1.3336271612027
4	355601	95.3	1.3336271612027
4	356023	95.4	1.3336271612027
4	356509	95.5	1.3336271612027
4	356994	95.6	1.3336271612027
4	357460	95.7	1.3336271612027
4	357882	95.8	1.3336271612027
4	358378	95.9	1.3336271612027
4	358869	96	1.3336271612027
4	359338	96.1	1.3336271612027
4	359759	96.2	1.3336271612027
4	360229	96.3	1.3336271612027
4	360639	96.4	1.3336271612027
4	361123	96.5	1.3336271612027
4	361604	96.6	1.3336271612027
4	362064	96.7	1.3336271612027
4	362502	96.8	1.3336271612027
4	362994	96.9	1.3336271612027
4	363480	97	1.3336271612027
4	363963	97.1	1.3336271612027
4	364445	97.2	1.3336271612027
4	364866	97.3	1.3336271612027
4	365335	97.4	1.3336271612027
4	365757	97.5	1.3336271612027
4	366242	97.6	1.3336271612027
4	366737	97.7	1.3336271612027
4	367234	97.8	1.3336271612027
4	367719	97.9	1.3336271612027
4	368190	98	1.3336271612027
4	368608	98.1	1.3336271612027
4	369097	98.2	1.3336271612027
4	369644	98.3	1.3336271612027
4	370103	98.4	1.3336271612027
4	370549	98.5	1.3336271612027
4	370971	98.6	1.3336271612027
4	371441	98.7	1.3336271612027
4	371848	98.8	1.3336271612027
4	372335	98.9	1.3336271612027
4	372831	99	1.3336271612027
4	373306	99.1	1.3336271612027
4	373803	99.2	1.3336271612027
4	374280	99.3	1.3336271612027
4	374764	99.4	1.3336271612027
4	375250	99.5	1.3336271612027
4	375757	99.6	1.3336271612027
4	376228	99.7	1.3336271612027
4	376648	99.8	1.3336271612027
4	377115	99.9	1.3336271612027
4	377537	100	1.3336271612027
4	378034	100.1	1.3336271612027
4	378542	100.2	1.3336271612027
4	379013	100.3	1.3336271612027
4	379422	100.4	1.3336271612027
4	379879	100.5	1.3336271612027
4	380302	100.6	1.3336271612027
4	380773	100.7	1.3336271612027
4	381180	100.8	1.3336271612027
4	381635	100.9	1.3336271612027
4	382056	101	1.3336271612027
4	382544	101.1	1.3336271612027
4	383039	101.2	1.3336271612027
4	383527	101.3	1.3336271612027
4	383996	101.4	1.3336271612027
4	384454	101.5	1.3336271612027
4	384876	101.6	1.3336271612027
4	385350	101.7	1.3336271612027
4	385860	101.8	1.3336271612027
4	386335	101.9	1.3336271612027
4	386830	102	1.3336271612027
4	387299	102.1	1.3336271612027
4	387708	102.2	1.3336271612027
4	388179	102.3	1.3336271612027
4	388666	102.4	1.3336271612027
4	389134	102.5	1.3336271612027
4	389542	102.6	1.3336271612027
4	390011	102.7	1.3336271612027
4	390433	102.8	1.3336271612027
4	390921	102.9	1.3336271612027
4	391413	103	1.3336271612027
4	391896	103.1	1.3336271612027
4	392394	103.2	1.3336271612027
4	392894	103.3	1.3336271612027
4	393390	103.4	1.3336271612027
4	393861	103.5	1.3336271612027
4	394277	103.6	1.3336271612027
4	394759	103.7	1.3336271612027
4	395255	103.8	1.3336271612027
4	395728	103.9	1.3336271612027
4	396163	104	1.3336271612027
4	396599	104.1	1.3336271612027
4	397017	104.2	1.3336271612027
4	397438	104.3	1.3336271612027
4	397938	104.4	1.3336271612027
4	398423	104.5	1.3336271612027
4	398909	104.6	1.3336271612027
4	399404	104.7	1.3336271612027
4	399879	104.8	1.3336271612027
4	400375	104.9	1.3336271612027
4	400862	105	1.3336271612027
4	401357	105.1	1.3336271612027
4	401824	105.2	1.3336271612027
4	402233	105.3	1.3336271612027
4	402723	105.4	1.3336271612027
4	403218	105.5	1.3336271612027
4	403673	105.6	1.3336271612027
4	404095	105.7	1.3336271612027
4	404551	105.8	1.3336271612027
4	404969	105.9	1.3336271612027
4	405439	106	1.3336271612027
4	405855	106.1	1.3336271612027
4	406318	106.2	1.3336271612027
4	406729	106.3	1.3336271612027
4	407214	106.4	1.3336271612027
4	407722	106.5	1.3336271612027
4	408192	106.6	1.3336271612027
4	408615	106.7	1.3336271612027
4	409100	106.8	1.3336271612027
4	409582	106.9	1.3336271612027
4	410069	107	1.3336271612027
4	410545	107.1	1.3336271612027
4	411046	107.2	1.3336271612027
4	411543	107.3	1.3336271612027
4	412003	107.4	1.3336271612027
4	412422	107.5	1.3336271612027
4	412893	107.6	1.3336271612027
4	413312	107.7	1.3336271612027
4	413785	107.8	1.3336271612027
4	414279	107.9	1.3336271612027
4	414756	108	1.3336271612027
4	415251	108.1	1.3336271612027
4	415719	108.2	1.3336271612027
4	416138	108.3	1.3336271612027
4	416623	108.4	1.3336271612027
4	417105	108.5	1.3336271612027
4	417595	108.6	1.3336271612027
4	418064	108.7	1.3336271612027
4	418523	108.8	1.3336271612027
4	418934	108.9	1.3336271612027
4	419405	109	1.3336271612027
4	419827	109.1	1.3336271612027
4	420282	109.2	1.3336271612027
4	420694	109.3	1.3336271612027
4	421134	109.4	1.3336271612027
4	421572	109.5	1.3336271612027
4	422079	109.6	1.3336271612027
4	422536	109.7	1.3336271612027
4	422968	109.8	1.3336271612027
4	423428	109.9	1.3336271612027
4	423859	110	1.3336271612027
4	424345	110.1	1.3336271612027
4	424828	110.2	1.3336271612027
4	425282	110.3	1.3336271612027
4	425688	110.4	1.3336271612027
4	426153	110.5	1.3336271612027
4	426575	110.6	1.3336271612027
4	427046	110.7	1.3336271612027
4	427495	110.8	1.3336271612027
4	427982	110.9	1.3336271612027
4	428478	111	1.3336271612027
4	428956	111.1	1.3336271612027
4	429392	111.2	1.3336271612027
4	429865	111.3	1.3336271612027
4	430348	111.4	1.3336271612027
4	430817	111.5	1.3336271612027
4	431239	111.6	1.3336271612027
4	431697	111.7	1.3336271612027
4	432127	111.8	1.3336271612027
4	432604	111.9	1.3336271612027
4	433101	112	1.3336271612027
4	433562	112.1	1.3336271612027
4	434056	112.2	1.3336271612027
4	434511	112.3	1.3336271612027
4	434958	112.4	1.3336271612027
4	435380	112.5	1.3336271612027
4	435861	112.6	1.3336271612027
4	436342	112.7	1.3336271612027
4	436830	112.8	1.3336271612027
4	437327	112.9	1.3336271612027
4	437797	113	1.3336271612027
4	438232	113.1	1.3336271612027
4	438701	113.2	1.3336271612027
4	439121	113.3	1.3336271612027
4	439618	113.4	1.3336271612027
4	440128	113.5	1.3336271612027
4	440615	113.6	1.3336271612027
4	441111	113.7	1.3336271612027
4	441567	113.8	1.3336271612027
4	442003	113.9	1.3336271612027
4	442421	114	1.3336271612027
4	442891	114.1	1.3336271612027
4	443302	114.2	1.3336271612027
4	443777	114.3	1.3336271612027
4	444274	114.4	1.3336271612027
4	444729	114.5	1.3336271612027
4	445163	114.6	1.3336271612027
4	445645	114.7	1.3336271612027
4	446067	114.8	1.3336271612027
4	446539	114.9	1.3336271612027
4	446961	115	1.3336271612027
4	447436	115.1	1.3336271612027
4	447921	115.2	1.3336271612027
4	448422	115.3	1.3336271612027
4	448890	115.4	1.3336271612027
4	449379	115.5	1.3336271612027
4	449887	115.6	1.3336271612027
4	450345	115.7	1.3336271612027
4	450752	115.8	1.3336271612027
4	451223	115.9	1.3336271612027
4	451644	116	1.3336271612027
4	452129	116.1	1.3336271612027
4	452549	116.2	1.3336271612027
4	453050	116.3	1.3336271612027
4	453544	116.4	1.3336271612027
4	454014	116.5	1.3336271612027
4	454448	116.6	1.3336271612027
4	454949	116.7	1.3336271612027
4	455443	116.8	1.3336271612027
4	455906	116.9	1.3336271612027
4	456321	117	1.3336271612027
4	456805	117.1	1.3336271612027
4	457288	117.2	1.3336271612027
4	457748	117.3	1.3336271612027
4	458154	117.4	1.3336271612027
4	458608	117.5	1.3336271612027
4	459027	117.6	1.3336271612027
4	459512	117.7	1.3336271612027
4	460005	117.8	1.3336271612027
4	460493	117.9	1.3336271612027
4	460976	118	1.3336271612027
4	461446	118.1	1.3336271612027
4	461876	118.2	1.3336271612027
4	462284	118.3	1.3336271612027
4	462752	118.4	1.3336271612027
4	463261	118.5	1.3336271612027
4	463730	118.6	1.3336271612027
4	464149	118.7	1.3336271612027
4	464623	118.8	1.3336271612027
4	465117	118.9	1.3336271612027
4	465601	119	1.3336271612027
4	466098	119.1	1.3336271612027
4	466582	119.2	1.3336271612027
4	467000	119.3	1.3336271612027
4	467474	119.4	1.3336271612027
4	467969	119.5	1.3336271612027
4	468453	119.6	1.3336271612027
4	468871	119.7	1.3336271612027
4	469354	119.8	1.3336271612027
4	469848	119.9	1.3336271612027
4	470322	120	1.3336271612027
4	470827	120.1	1.3336271612027
4	471293	120.2	1.3336271612027
4	471772	120.3	1.3336271612027
4	472246	120.4	1.3336271612027
4	472667	120.5	1.3336271612027
4	473137	120.6	1.3336271612027
4	473601	120.7	1.3336271612027
4	474099	120.8	1.3336271612027
4	474567	120.9	1.3336271612027
4	474973	121	1.3336271612027
4	475443	121.1	1.3336271612027
4	475862	121.2	1.3336271612027
4	476335	121.3	1.3336271612027
4	476833	121.4	1.3336271612027
4	477333	121.5	1.3336271612027
4	477814	121.6	1.3336271612027
4	478285	121.7	1.3336271612027
4	478718	121.8	1.3336271612027
4	479200	121.9	1.3336271612027
4	479682	122	1.3336271612027
4	480153	122.1	1.3336271612027
4	480574	122.2	1.3336271612027
4	481044	122.3	1.3336271612027
4	481464	122.4	1.3336271612027
4	481936	122.5	1.3336271612027
4	482343	122.6	1.3336271612027
4	482786	122.7	1.3336271612027
4	483220	122.8	1.3336271612027
4	483639	122.9	1.3336271612027
4	484140	123	1.3336271612027
4	484609	123.1	1.3336271612027
4	485109	123.2	1.3336271612027
4	485614	123.3	1.3336271612027
4	486086	123.4	1.3336271612027
4	486506	123.5	1.3336271612027
4	486963	123.6	1.3336271612027
4	487370	123.7	1.3336271612027
4	487859	123.8	1.3336271612027
4	488350	123.9	1.3336271612027
4	488820	124	1.3336271612027
4	489241	124.1	1.3336271612027
4	489711	124.2	1.3336271612027
4	490134	124.3	1.3336271612027
4	490621	124.4	1.3336271612027
4	491113	124.5	1.3336271612027
4	491589	124.6	1.3336271612027
4	492085	124.7	1.3336271612027
4	492571	124.8	1.3336271612027
4	493051	124.9	1.3336271612027
4	493536	125	1.3336271612027
4	494029	125.1	1.3336271612027
4	494487	125.2	1.3336271612027
4	494909	125.3	1.3336271612027
4	495396	125.4	1.3336271612027
4	495905	125.5	1.3336271612027
4	496365	125.6	1.3336271612027
4	496799	125.7	1.3336271612027
4	497265	125.8	1.3336271612027
4	497685	125.9	1.3336271612027
4	498184	126	1.3336271612027
4	498679	126.1	1.3336271612027
4	499145	126.2	1.3336271612027
4	499637	126.3	1.3336271612027
4	500081	126.4	1.3336271612027
4	500512	126.5	1.3336271612027
4	500980	126.6	1.3336271612027
4	501398	126.7	1.3336271612027
4	501852	126.8	1.3336271612027
4	502262	126.9	1.3336271612027
4	502747	127	1.3336271612027
4	503222	127.1	1.3336271612027
4	503705	127.2	1.3336271612027
4	504203	127.3	1.3336271612027
4	504662	127.4	1.3336271612027
4	505067	127.5	1.3336271612027
4	505539	127.6	1.3336271612027
4	506013	127.7	1.3336271612027
4	506484	127.8	1.3336271612027
4	506905	127.9	1.3336271612027
4	507392	128	1.3336271612027
4	507898	128.1	1.3336271612027
4	508348	128.2	1.3336271612027
4	508770	128.3	1.3336271612027
4	509237	128.4	1.3336271612027
4	509671	128.5	1.3336271612027
4	510157	128.6	1.3336271612027
4	510640	128.7	1.3336271612027
4	511112	128.8	1.3336271612027
4	511533	128.9	1.3336271612027
4	512010	129	1.3336271612027
4	512517	129.1	1.3336271612027
4	513016	129.2	1.3336271612027
4	513511	129.3	1.3336271612027
4	513998	129.4	1.3336271612027
4	514491	129.5	1.3336271612027
4	514979	129.6	1.3336271612027
4	515473	129.7	1.3336271612027
4	515931	129.8	1.3336271612027
4	516352	129.9	1.3336271612027
4	516795	130	1.3336271612027
4	517258	130.1	1.3336271612027
4	517738	130.2	1.3336271612027
4	518240	130.3	1.3336271612027
4	518708	130.4	1.3336271612027
4	519194	130.5	1.3336271612027
4	519692	130.6	1.3336271612027
4	520176	130.7	1.3336271612027
4	520584	130.8	1.3336271612027
4	521038	130.9	1.3336271612027
4	521471	131	1.3336271612027
4	521958	131.1	1.3336271612027
4	522443	131.2	1.3336271612027
4	522910	131.3	1.3336271612027
4	523332	131.4	1.3336271612027
4	523800	131.5	1.3336271612027
4	524221	131.6	1.3336271612027
4	524675	131.7	1.3336271612027
4	525111	131.8	1.3336271612027
4	525599	131.9	1.3336271612027
4	526109	132	1.3336271612027
4	526577	132.1	1.3336271612027
4	526997	132.2	1.3336271612027
4	527482	132.3	1.3336271612027
4	527977	132.4	1.3336271612027
4	528446	132.5	1.3336271612027
4	528853	132.6	1.3336271612027
4	529354	132.7	1.3336271612027
4	529861	132.8	1.3336271612027
4	530338	132.9	1.3336271612027
4	530824	133	1.3336271612027
4	531312	133.1	1.3336271612027
4	531818	133.2	1.3336271612027
4	532301	133.3	1.3336271612027
4	532781	133.4	1.3336271612027
4	533269	133.5	1.3336271612027
4	533776	133.6	1.3336271612027
4	534263	133.7	1.3336271612027
4	534768	133.8	1.3336271612027
4	535252	133.9	1.3336271612027
4	535760	134	1.3336271612027
4	536241	134.1	1.3336271612027
4	536647	134.2	1.3336271612027
4	537106	134.3	1.3336271612027
4	537539	134.4	1.3336271612027
4	537986	134.5	1.3336271612027
4	538420	134.6	1.3336271612027
4	538837	134.7	1.3336271612027
4	539306	134.8	1.3336271612027
4	539738	134.9	1.3336271612027
4	540195	135	1.3336271612027
4	540606	135.1	1.3336271612027
4	541093	135.2	1.3336271612027
4	541586	135.3	1.3336271612027
4	542055	135.4	1.3336271612027
4	542475	135.5	1.3336271612027
4	542960	135.6	1.3336271612027
4	543456	135.7	1.3336271612027
4	543923	135.8	1.3336271612027
4	544359	135.9	1.3336271612027
4	544813	136	1.3336271612027
4	545224	136.1	1.3336271612027
4	545683	136.2	1.3336271612027
4	546104	136.3	1.3336271612027
4	546586	136.4	1.3336271612027
4	547003	136.5	1.3336271612027
4	547480	136.6	1.3336271612027
4	547948	136.7	1.3336271612027
4	548431	136.8	1.3336271612027
4	548927	136.9	1.3336271612027
4	549385	137	1.3336271612027
4	549830	137.1	1.3336271612027
4	550262	137.2	1.3336271612027
4	550748	137.3	1.3336271612027
4	551244	137.4	1.3336271612027
4	551704	137.5	1.3336271612027
4	552124	137.6	1.3336271612027
4	552609	137.7	1.3336271612027
4	553089	137.8	1.3336271612027
4	553563	137.9	1.3336271612027
4	554056	138	1.3336271612027
4	554522	138.1	1.3336271612027
4	554943	138.2	1.3336271612027
4	555410	138.3	1.3336271612027
4	555831	138.4	1.3336271612027
4	556301	138.5	1.3336271612027
4	556732	138.6	1.3336271612027
4	557204	138.7	1.3336271612027
4	557699	138.8	1.3336271612027
4	558186	138.9	1.3336271612027
4	558677	139	1.3336271612027
4	559162	139.1	1.3336271612027
4	559641	139.2	1.3336271612027
4	560121	139.3	1.3336271612027
4	560556	139.4	1.3336271612027
4	561042	139.5	1.3336271612027
4	561533	139.6	1.3336271612027
4	562003	139.7	1.3336271612027
4	562425	139.8	1.3336271612027
4	562893	139.9	1.3336271612027
4	563310	140	1.3336271612027
4	563777	140.1	1.3336271612027
4	564199	140.2	1.3336271612027
4	564671	140.3	1.3336271612027
4	565107	140.4	1.3336271612027
4	565595	140.5	1.3336271612027
4	566090	140.6	1.3336271612027
4	566534	140.7	1.3336271612027
4	566956	140.8	1.3336271612027
4	567416	140.9	1.3336271612027
4	567838	141	1.3336271612027
4	568312	141.1	1.3336271612027
4	568808	141.2	1.3336271612027
4	569267	141.3	1.3336271612027
4	569673	141.4	1.3336271612027
4	570155	141.5	1.3336271612027
4	570574	141.6	1.3336271612027
4	571040	141.7	1.3336271612027
4	571462	141.8	1.3336271612027
4	571961	141.9	1.3336271612027
4	572459	142	1.3336271612027
4	572947	142.1	1.3336271612027
4	573455	142.2	1.3336271612027
4	573923	142.3	1.3336271612027
4	574355	142.4	1.3336271612027
4	574814	142.5	1.3336271612027
4	575236	142.6	1.3336271612027
4	575709	142.7	1.3336271612027
4	576126	142.8	1.3336271612027
4	576599	142.9	1.3336271612027
4	577084	143	1.3336271612027
4	577557	143.1	1.3336271612027
4	578050	143.2	1.3336271612027
4	578532	143.3	1.3336271612027
4	578944	143.4	1.3336271612027
4	579410	143.5	1.3336271612027
4	579844	143.6	1.3336271612027
4	580318	143.7	1.3336271612027
4	580799	143.8	1.3336271612027
4	581298	143.9	1.3336271612027
4	581788	144	1.3336271612027
4	582254	144.1	1.3336271612027
4	582738	144.2	1.3336271612027
4	583211	144.3	1.3336271612027
4	583645	144.4	1.3336271612027
4	584130	144.5	1.3336271612027
4	584564	144.6	1.3336271612027
4	585052	144.7	1.3336271612027
4	585532	144.8	1.3336271612027
4	585999	144.9	1.3336271612027
4	586434	145	1.3336271612027
4	586886	145.1	1.3336271612027
4	587310	145.2	1.3336271612027
4	587780	145.3	1.3336271612027
4	588200	145.4	1.3336271612027
4	588666	145.5	1.3336271612027
4	589085	145.6	1.3336271612027
4	589555	145.7	1.3336271612027
4	589980	145.8	1.3336271612027
4	590436	145.9	1.3336271612027
4	590858	146	1.3336271612027
4	591342	146.1	1.3336271612027
4	591827	146.2	1.3336271612027
4	592314	146.3	1.3336271612027
4	592794	146.4	1.3336271612027
4	593266	146.5	1.3336271612027
4	593744	146.6	1.3336271612027
4	594216	146.7	1.3336271612027
4	594711	146.8	1.3336271612027
4	595168	146.9	1.3336271612027
4	595589	147	1.3336271612027
4	595997	147.1	1.3336271612027
4	596468	147.2	1.3336271612027
4	596878	147.3	1.3336271612027
4	597367	147.4	1.3336271612027
4	597858	147.5	1.3336271612027
4	598342	147.6	1.3336271612027
4	598821	147.7	1.3336271612027
4	599307	147.8	1.3336271612027
4	599797	147.9	1.3336271612027
4	600255	148	1.3336271612027
4	600673	148.1	1.3336271612027
4	601139	148.2	1.3336271612027
4	601558	148.3	1.3336271612027
4	602027	148.4	1.3336271612027
4	602447	148.5	1.3336271612027
4	602931	148.6	1.3336271612027
4	603424	148.7	1.3336271612027
4	603898	148.8	1.3336271612027
4	604390	148.9	1.3336271612027
4	604860	149	1.3336271612027
4	605280	149.1	1.3336271612027
4	605724	149.2	1.3336271612027
4	606159	149.3	1.3336271612027
4	606565	149.4	1.3336271612027
4	607064	149.5	1.3336271612027
4	607561	149.6	1.3336271612027
4	608029	149.7	1.3336271612027
4	608435	149.8	1.3336271612027
4	608894	149.9	1.3336271612027
4	609343	150	1.3336271612027
4	609850	150.1	1.3336271612027
4	610310	150.2	1.3336271612027
4	610730	150.3	1.3336271612027
4	611190	150.4	1.3336271612027
4	611612	150.5	1.3336271612027
4	612085	150.6	1.3336271612027
4	612502	150.7	1.3336271612027
4	612976	150.8	1.3336271612027
4	613445	150.9	1.3336271612027
4	613905	151	1.3336271612027
4	614313	151.1	1.3336271612027
4	614800	151.2	1.3336271612027
4	615292	151.3	1.3336271612027
4	615807	151.4	1.3336271612027
4	616303	151.5	1.3336271612027
4	616790	151.6	1.3336271612027
4	617286	151.7	1.3336271612027
4	617768	151.8	1.3336271612027
4	618261	151.9	1.3336271612027
4	618728	152	1.3336271612027
4	619222	152.1	1.3336271612027
4	619687	152.2	1.3336271612027
4	620108	152.3	1.3336271612027
4	620563	152.4	1.3336271612027
4	620984	152.5	1.3336271612027
4	621459	152.6	1.3336271612027
4	621937	152.7	1.3336271612027
4	622406	152.8	1.3336271612027
4	622825	152.9	1.3336271612027
4	623312	153	1.3336271612027
4	623821	153.1	1.3336271612027
4	624278	153.2	1.3336271612027
4	624713	153.3	1.3336271612027
4	625163	153.4	1.3336271612027
4	625573	153.5	1.3336271612027
4	626045	153.6	1.3336271612027
4	626468	153.7	1.3336271612027
4	626955	153.8	1.3336271612027
4	627463	153.9	1.3336271612027
4	627946	154	1.3336271612027
4	628354	154.1	1.3336271612027
4	628831	154.2	1.3336271612027
4	629324	154.3	1.3336271612027
4	629792	154.4	1.3336271612027
4	630210	154.5	1.3336271612027
4	630709	154.6	1.3336271612027
4	631215	154.7	1.3336271612027
4	631717	154.8	1.3336271612027
4	632198	154.9	1.3336271612027
4	632686	155	1.3336271612027
4	633181	155.1	1.3336271612027
4	633655	155.2	1.3336271612027
4	634130	155.3	1.3336271612027
4	634614	155.4	1.3336271612027
4	635107	155.5	1.3336271612027
4	635574	155.6	1.3336271612027
4	635993	155.7	1.3336271612027
4	636464	155.8	1.3336271612027
4	636886	155.9	1.3336271612027
4	637360	156	1.3336271612027
4	637824	156.1	1.3336271612027
4	638292	156.2	1.3336271612027
4	638711	156.3	1.3336271612027
4	639198	156.4	1.3336271612027
4	639678	156.5	1.3336271612027
4	640124	156.6	1.3336271612027
4	640576	156.7	1.3336271612027
4	641059	156.8	1.3336271612027
4	641532	156.9	1.3336271612027
4	641950	157	1.3336271612027
4	642451	157.1	1.3336271612027
4	642944	157.2	1.3336271612027
4	643432	157.3	1.3336271612027
4	643912	157.4	1.3336271612027
4	644411	157.5	1.3336271612027
4	644880	157.6	1.3336271612027
4	645351	157.7	1.3336271612027
4	645767	157.8	1.3336271612027
4	646223	157.9	1.3336271612027
4	646646	158	1.3336271612027
4	647115	158.1	1.3336271612027
4	647539	158.2	1.3336271612027
4	648011	158.3	1.3336271612027
4	648432	158.4	1.3336271612027
4	648899	158.5	1.3336271612027
4	649321	158.6	1.3336271612027
4	649789	158.7	1.3336271612027
4	650208	158.8	1.3336271612027
4	650695	158.9	1.3336271612027
4	651201	159	1.3336271612027
4	651655	159.1	1.3336271612027
4	652072	159.2	1.3336271612027
4	652573	159.3	1.3336271612027
4	653082	159.4	1.3336271612027
4	653567	159.5	1.3336271612027
4	654049	159.6	1.3336271612027
4	654521	159.7	1.3336271612027
4	655011	159.8	1.3336271612027
4	655483	159.9	1.3336271612027
4	655965	160	1.3336271612027
4	656420	160.1	1.3336271612027
4	656826	160.2	1.3336271612027
4	657307	160.3	1.3336271612027
4	657739	160.4	1.3336271612027
4	658211	160.5	1.3336271612027
4	658720	160.6	1.3336271612027
4	659178	160.7	1.3336271612027
4	659600	160.8	1.3336271612027
4	660084	160.9	1.3336271612027
4	660518	161	1.3336271612027
4	661008	161.1	1.3336271612027
4	661503	161.2	1.3336271612027
4	661974	161.3	1.3336271612027
4	662395	161.4	1.3336271612027
4	662879	161.5	1.3336271612027
4	663375	161.6	1.3336271612027
4	663861	161.7	1.3336271612027
4	664330	161.8	1.3336271612027
4	664802	161.9	1.3336271612027
4	665299	162	1.3336271612027
4	665775	162.1	1.3336271612027
4	666282	162.2	1.3336271612027
4	666694	162.3	1.3336271612027
4	667118	162.4	1.3336271612027
4	667578	162.5	1.3336271612027
4	668012	162.6	1.3336271612027
4	668469	162.7	1.3336271612027
4	668916	162.8	1.3336271612027
4	669373	162.9	1.3336271612027
4	669805	163	1.3336271612027
4	670262	163.1	1.3336271612027
4	670685	163.2	1.3336271612027
4	671146	163.3	1.3336271612027
4	671559	163.4	1.3336271612027
4	671968	163.5	1.3336271612027
4	672428	163.6	1.3336271612027
4	672856	163.7	1.3336271612027
4	673265	163.8	1.3336271612027
4	673708	163.9	1.3336271612027
4	674128	164	1.3336271612027
4	674598	164.1	1.3336271612027
4	675028	164.2	1.3336271612027
4	675484	164.3	1.3336271612027
4	675930	164.4	1.3336271612027
4	676373	164.5	1.3336271612027
4	676790	164.6	1.3336271612027
4	677199	164.7	1.3336271612027
4	677658	164.8	1.3336271612027
4	678093	164.9	1.3336271612027
4	678550	165	1.3336271612027
4	678983	165.1	1.3336271612027
4	679441	165.2	1.3336271612027
4	679874	165.3	1.3336271612027
4	680344	165.4	1.3336271612027
4	680762	165.5	1.3336271612027
4	681221	165.6	1.3336271612027
4	681666	165.7	1.3336271612027
4	682128	165.8	1.3336271612027
4	682530	165.9	1.3336271612027
4	682909	166	1.3336271612027
4	683319	166.1	1.3336271612027
4	683791	166.2	1.3336271612027
4	684224	166.3	1.3336271612027
4	684683	166.4	1.3336271612027
4	685128	166.5	1.3336271612027
4	685588	166.6	1.3336271612027
4	686011	166.7	1.3336271612027
4	686481	166.8	1.3336271612027
4	686929	166.9	1.3336271612027
4	687372	167	1.3336271612027
4	687818	167.1	1.3336271612027
4	688274	167.2	1.3336271612027
4	688696	167.3	1.3336271612027
4	689149	167.4	1.3336271612027
4	689583	167.5	1.3336271612027
4	690054	167.6	1.3336271612027
4	690472	167.7	1.3336271612027
4	690915	167.8	1.3336271612027
4	691320	167.9	1.3336271612027
4	691730	168	1.3336271612027
4	692190	168.1	1.3336271612027
4	692625	168.2	1.3336271612027
4	693081	168.3	1.3336271612027
4	693492	168.4	1.3336271612027
4	693949	168.5	1.3336271612027
4	694349	168.6	1.3336271612027
4	694758	168.7	1.3336271612027
4	695207	168.8	1.3336271612027
4	695639	168.9	1.3336271612027
4	696086	169	1.3336271612027
4	696518	169.1	1.3336271612027
4	696950	169.2	1.3336271612027
4	697378	169.3	1.3336271612027
4	697827	169.4	1.3336271612027
4	698260	169.5	1.3336271612027
4	698733	169.6	1.3336271612027
4	699161	169.7	1.3336271612027
4	699570	169.8	1.3336271612027
4	700010	169.9	1.3336271612027
4	700442	170	1.3336271612027
4	700899	170.1	1.3336271612027
4	701333	170.2	1.3336271612027
4	701776	170.3	1.3336271612027
4	702192	170.4	1.3336271612027
4	702602	170.5	1.3336271612027
4	703047	170.6	1.3336271612027
4	703476	170.7	1.3336271612027
4	703934	170.8	1.3336271612027
4	704379	170.9	1.3336271612027
4	704852	171	1.3336271612027
4	705273	171.1	1.3336271612027
4	705732	171.2	1.3336271612027
4	706145	171.3	1.3336271612027
4	706555	171.4	1.3336271612027
4	707011	171.5	1.3336271612027
4	707445	171.6	1.3336271612027
4	707900	171.7	1.3336271612027
4	708333	171.8	1.3336271612027
4	708781	171.9	1.3336271612027
4	709197	172	1.3336271612027
4	709593	172.1	1.3336271612027
4	710050	172.2	1.3336271612027
4	710479	172.3	1.3336271612027
4	710876	172.4	1.3336271612027
4	711324	172.5	1.3336271612027
4	711757	172.6	1.3336271612027
4	712217	172.7	1.3336271612027
4	712650	172.8	1.3336271612027
4	713093	172.9	1.3336271612027
4	713525	173	1.3336271612027
4	713973	173.1	1.3336271612027
4	714391	173.2	1.3336271612027
4	714840	173.3	1.3336271612027
4	715268	173.4	1.3336271612027
4	715678	173.5	1.3336271612027
4	716121	173.6	1.3336271612027
4	716541	173.7	1.3336271612027
4	716998	173.8	1.3336271612027
4	717414	173.9	1.3336271612027
4	717824	174	1.3336271612027
4	718281	174.1	1.3336271612027
4	718682	174.2	1.3336271612027
4	719093	174.3	1.3336271612027
4	719562	174.4	1.3336271612027
4	719990	174.5	1.3336271612027
4	720388	174.6	1.3336271612027
4	720846	174.7	1.3336271612027
4	721267	174.8	1.3336271612027
4	721726	174.9	1.3336271612027
4	722174	175	1.3336271612027
4	722606	175.1	1.3336271612027
4	723027	175.2	1.3336271612027
4	723475	175.3	1.3336271612027
4	723909	175.4	1.3336271612027
4	724368	175.5	1.3336271612027
4	724813	175.6	1.3336271612027
4	725268	175.7	1.3336271612027
4	725713	175.8	1.3336271612027
4	726161	175.9	1.3336271612027
4	726594	176	1.3336271612027
4	727065	176.1	1.3336271612027
4	727510	176.2	1.3336271612027
4	727954	176.3	1.3336271612027
4	728384	176.4	1.3336271612027
4	728830	176.5	1.3336271612027
4	729245	176.6	1.3336271612027
4	729635	176.7	1.3336271612027
4	730026	176.8	1.3336271612027
4	730432	176.9	1.3336271612027
4	730826	177	1.3336271612027
4	731269	177.1	1.3336271612027
4	731689	177.2	1.3336271612027
4	732149	177.3	1.3336271612027
4	732583	177.4	1.3336271612027
4	733028	177.5	1.3336271612027
4	733442	177.6	1.3336271612027
4	733835	177.7	1.3336271612027
4	734258	177.8	1.3336271612027
4	734716	177.9	1.3336271612027
4	735135	178	1.3336271612027
4	735593	178.1	1.3336271612027
4	736040	178.2	1.3336271612027
4	736483	178.3	1.3336271612027
4	736916	178.4	1.3336271612027
4	737365	178.5	1.3336271612027
4	737768	178.6	1.3336271612027
4	738174	178.7	1.3336271612027
4	738585	178.8	1.3336271612027
4	739017	178.9	1.3336271612027
4	739428	179	1.3336271612027
4	739821	179.1	1.3336271612027
4	740232	179.2	1.3336271612027
4	740675	179.3	1.3336271612027
4	741076	179.4	1.3336271612027
4	741516	179.5	1.3336271612027
4	742011	179.6	1.3336271612027
4	742427	179.7	1.3336271612027
4	742875	179.8	1.3336271612027
4	743297	179.9	1.3336271612027
4	743739	180	1.3336271612027
4	744169	180.1	1.3336271612027
4	744623	180.2	1.3336271612027
4	745076	180.3	1.3336271612027
4	745493	180.4	1.3336271612027
4	745951	180.5	1.3336271612027
4	746371	180.6	1.3336271612027
4	746802	180.7	1.3336271612027
4	747240	180.8	1.3336271612027
4	747709	180.9	1.3336271612027
4	748176	181	1.3336271612027
4	748610	181.1	1.3336271612027
4	749077	181.2	1.3336271612027
4	749499	181.3	1.3336271612027
4	749966	181.4	1.3336271612027
4	750389	181.5	1.3336271612027
4	750850	181.6	1.3336271612027
4	751262	181.7	1.3336271612027
4	751744	181.8	1.3336271612027
4	752178	181.9	1.3336271612027
4	752636	182	1.3336271612027
4	753070	182.1	1.3336271612027
4	753531	182.2	1.3336271612027
4	754025	182.3	1.3336271612027
4	754524	182.4	1.3336271612027
4	755016	182.5	1.3336271612027
4	755487	182.6	1.3336271612027
4	755894	182.7	1.3336271612027
4	756366	182.8	1.3336271612027
4	756772	182.9	1.3336271612027
4	757229	183	1.3336271612027
4	757640	183.1	1.3336271612027
4	758113	183.2	1.3336271612027
4	758594	183.3	1.3336271612027
4	759064	183.4	1.3336271612027
4	759470	183.5	1.3336271612027
4	759942	183.6	1.3336271612027
4	760437	183.7	1.3336271612027
4	760907	183.8	1.3336271612027
4	761330	183.9	1.3336271612027
4	761812	184	1.3336271612027
4	762271	184.1	1.3336271612027
4	762740	184.2	1.3336271612027
4	763161	184.3	1.3336271612027
4	763642	184.4	1.3336271612027
4	764048	184.5	1.3336271612027
4	764490	184.6	1.3336271612027
4	764941	184.7	1.3336271612027
4	765410	184.8	1.3336271612027
4	765883	184.9	1.3336271612027
4	766290	185	1.3336271612027
4	766790	185.1	1.3336271612027
4	767284	185.2	1.3336271612027
4	767755	185.3	1.3336271612027
4	768177	185.4	1.3336271612027
4	768643	185.5	1.3336271612027
4	769059	185.6	1.3336271612027
4	769519	185.7	1.3336271612027
4	769938	185.8	1.3336271612027
4	770382	185.9	1.3336271612027
4	770803	186	1.3336271612027
4	771273	186.1	1.3336271612027
4	771684	186.2	1.3336271612027
4	772127	186.3	1.3336271612027
4	772529	186.4	1.3336271612027
4	773012	186.5	1.3336271612027
4	773492	186.6	1.3336271612027
4	773952	186.7	1.3336271612027
4	774375	186.8	1.3336271612027
4	774860	186.9	1.3336271612027
4	775354	187	1.3336271612027
4	775826	187.1	1.3336271612027
4	776309	187.2	1.3336271612027
4	776771	187.3	1.3336271612027
4	777178	187.4	1.3336271612027
4	777661	187.5	1.3336271612027
4	778141	187.6	1.3336271612027
4	778641	187.7	1.3336271612027
4	779135	187.8	1.3336271612027
4	779601	187.9	1.3336271612027
4	780109	188	1.3336271612027
4	780580	188.1	1.3336271612027
4	780996	188.2	1.3336271612027
4	781462	188.3	1.3336271612027
4	781896	188.4	1.3336271612027
4	782397	188.5	1.3336271612027
4	782904	188.6	1.3336271612027
4	783374	188.7	1.3336271612027
4	783791	188.8	1.3336271612027
4	784264	188.9	1.3336271612027
4	784746	189	1.3336271612027
4	785216	189.1	1.3336271612027
4	785636	189.2	1.3336271612027
4	786123	189.3	1.3336271612027
4	786619	189.4	1.3336271612027
4	787103	189.5	1.3336271612027
4	787588	189.6	1.3336271612027
4	788055	189.7	1.3336271612027
4	788476	189.8	1.3336271612027
4	788977	189.9	1.3336271612027
4	789472	190	1.3336271612027
4	789953	190.1	1.3336271612027
4	790373	190.2	1.3336271612027
4	790840	190.3	1.3336271612027
4	791258	190.4	1.3336271612027
4	791743	190.5	1.3336271612027
4	792176	190.6	1.3336271612027
4	792595	190.7	1.3336271612027
4	793038	190.8	1.3336271612027
4	793470	190.9	1.3336271612027
4	793904	191	1.3336271612027
4	794372	191.1	1.3336271612027
4	794807	191.2	1.3336271612027
4	795262	191.3	1.3336271612027
4	795679	191.4	1.3336271612027
4	796145	191.5	1.3336271612027
4	796564	191.6	1.3336271612027
4	797018	191.7	1.3336271612027
4	797400	191.8	1.3336271612027
4	797857	191.9	1.3336271612027
4	798267	192	1.3336271612027
4	798769	192.1	1.3336271612027
4	799264	192.2	1.3336271612027
4	799694	192.3	1.3336271612027
4	800137	192.4	1.3336271612027
4	800582	192.5	1.3336271612027
4	801024	192.6	1.3336271612027
4	801456	192.7	1.3336271612027
4	801915	192.8	1.3336271612027
4	802347	192.9	1.3336271612027
4	802788	193	1.3336271612027
4	803219	193.1	1.3336271612027
4	803689	193.2	1.3336271612027
4	804113	193.3	1.3336271612027
4	804558	193.4	1.3336271612027
4	804990	193.5	1.3336271612027
4	805449	193.6	1.3336271612027
4	805885	193.7	1.3336271612027
4	806323	193.8	1.3336271612027
4	806741	193.9	1.3336271612027
4	807138	194	1.3336271612027
4	807595	194.1	1.3336271612027
4	808029	194.2	1.3336271612027
4	808478	194.3	1.3336271612027
4	808900	194.4	1.3336271612027
4	809341	194.5	1.3336271612027
4	809769	194.6	1.3336271612027
4	810178	194.7	1.3336271612027
4	810637	194.8	1.3336271612027
4	811068	194.9	1.3336271612027
4	811515	195	1.3336271612027
3	56	0.3	0
3	104	0.4	0
3	152	0.5	0
3	200	0.6	0
3	248	0.7	0
3	296	0.8	0
3	344	0.9	0
3	392	1	0
3	440	1.1	26
3	488	1.2	0
3	536	1.3	0
3	584	1.4	0
3	632	1.5	0
3	680	1.6	0
3	728	1.7	0
3	776	1.8	0
3	824	1.9	0
3	872	2	0
3	920	2.1	18.652312381963
3	968	2.2	0
3	1016	2.3	0
3	1064	2.4	0
3	1112	2.5	0
3	1160	2.6	0
3	1208	2.7	0
3	1256	2.8	0
3	1304	2.9	0
3	1352	3	0
3	1400	3.1	0
3	1468	3.2	0
3	1578	3.3	0
3	1679	3.4	0
3	1782	3.5	0
3	1876	3.6	0
3	1979	3.7	0
3	2080	3.8	0
3	2183	3.9	0
3	2284	4	0
3	2387	4.1	0
3	2488	4.2	0
3	2598	4.3	0
3	2699	4.4	0
3	2802	4.5	0
3	2903	4.6	0
3	3013	4.7	0
3	3114	4.8	0
3	3224	4.9	0
3	3325	5	0
3	3435	5.1	0
3	3529	5.2	0
3	3639	5.3	0
3	3733	5.4	0
3	3836	5.5	0
3	3937	5.6	0
3	4047	5.7	0
3	4148	5.8	0
3	4251	5.9	0
3	4352	6	0
3	4455	6.1	0
3	4556	6.2	0
3	4666	6.3	0
3	4767	6.4	0
3	4870	6.5	0
3	4964	6.6	0
3	5074	6.7	0
3	5175	6.8	0
3	5285	6.9	0
3	5386	7	0
3	5496	7.1	0
3	5627	7.2	0
3	5806	7.3	0
3	6007	7.4	0
3	6184	7.5	0
3	6360	7.6	0
3	6537	7.7	0
3	6723	7.8	0
3	6909	7.9	0
3	7095	8	0
3	7264	8.1	0
3	7450	8.2	0
3	7619	8.3	0
3	7788	8.4	0
3	7964	8.5	0
3	8141	8.6	0
3	8327	8.7	0
3	8503	8.8	0
3	8689	8.9	0
3	8875	9	0
3	9061	9.1	0
3	9238	9.2	0
3	9414	9.3	0
3	9590	9.4	0
3	9776	9.5	0
3	9952	9.6	0
3	10138	9.7	0
3	10314	9.8	0
3	10490	9.9	0
3	10666	10	0
3	10842	10.1	0
3	11018	10.2	0
3	11194	10.3	0
3	11371	10.4	0
3	11557	10.5	0
3	11733	10.6	0
3	11919	10.7	0
3	12105	10.8	0
3	12291	10.9	0
3	12477	11	0
3	12663	11.1	0
3	12849	11.2	0
3	13025	11.3	0
3	13201	11.4	0
3	13387	11.5	0
3	13556	11.6	0
3	13732	11.7	0
3	13918	11.8	0
3	14087	11.9	0
3	14263	12	0
3	14449	12.1	0
3	14618	12.2	0
3	14794	12.3	0
3	14980	12.4	0
3	15156	12.5	0
3	15342	12.6	0
3	15519	12.7	0
3	15695	12.8	0
3	15881	12.9	0
3	16057	13	0
3	16234	13.1	0
3	16410	13.2	0
3	16596	13.3	0
3	16773	13.4	0
3	16950	13.5	0
3	17126	13.6	0
3	17303	13.7	0
3	17480	13.8	0
3	17666	13.9	0
3	17852	14	0
3	18038	14.1	0
3	18254	14.2	0
3	18548	14.3	0
3	18849	14.4	0
3	19163	14.5	0
3	19468	14.6	0
3	19781	14.7	0
3	20095	14.8	0
3	20398	14.9	0
3	20700	15	0
3	21005	15.1	0
3	21317	15.2	0
3	21630	15.3	0
3	21955	15.4	0
3	22256	15.5	0
3	22569	15.6	0
3	22894	15.7	0
3	23205	15.8	0
3	23515	15.9	0
3	23815	16	0
3	24129	16.1	0
3	24439	16.2	0
3	24753	16.3	0
3	25056	16.4	0
3	25370	16.5	0
3	25684	16.6	0
3	26009	16.7	0
3	26319	16.8	0
3	26633	16.9	0
3	26945	17	0
3	27257	17.1	0
3	27562	17.2	0
3	27865	17.3	0
3	28179	17.4	0
3	28482	17.5	0
3	28787	17.6	0
3	29100	17.7	0
3	29425	17.8	0
3	29750	17.9	0
3	30064	18	0
3	30367	18.1	0
3	30668	18.2	0
3	30993	18.3	0
3	31295	18.4	0
3	31598	18.5	0
3	31911	18.6	0
3	32210	18.7	0
3	32520	18.8	0
3	32832	18.9	0
3	33145	19	0
3	33457	19.1	0
3	33770	19.2	0
3	34082	19.3	0
3	34385	19.4	0
3	34697	19.5	0
3	35009	19.6	0
3	35323	19.7	0
3	35648	19.8	0
3	35951	19.9	0
3	36261	20	0
3	36573	20.1	0
3	36885	20.2	0
3	37187	20.3	0
3	37498	20.4	0
3	37800	20.5	0
3	38102	20.6	0
3	38404	20.7	0
3	38729	20.8	0
3	39042	20.9	0
3	39335	21	0
3	39637	21.1	0
3	39939	21.2	0
3	40251	21.3	0
3	40562	21.4	0
3	40864	21.5	0
3	41176	21.6	0
3	41487	21.7	0
3	41811	21.8	0
3	42123	21.9	0
3	42425	22	0
3	42749	22.1	0
3	43073	22.2	0
3	43384	22.3	0
3	43695	22.4	0
3	44007	22.5	0
3	44305	22.6	0
3	44618	22.7	0
3	44925	22.8	0
3	45233	22.9	0
3	45541	23	0
3	45842	23.1	0
3	46193	23.2	0
3	46599	23.3	0
3	47028	23.4	0
3	47428	23.5	0
3	47847	23.6	0
3	48265	23.7	0
3	48681	23.8	0
3	49110	23.9	0
3	49532	24	0
3	49950	24.1	0
3	50362	24.2	0
3	50772	24.3	0
3	51192	24.4	0
3	51604	24.5	0
3	52021	24.6	0
3	52429	24.7	0
3	52863	24.8	0
3	53287	24.9	0
3	53699	25	0
3	54134	25.1	0
3	54562	25.2	0
3	54970	25.3	0
3	55388	25.4	0
3	55813	25.5	0
3	56232	25.6	0
3	56653	25.7	0
3	57072	25.8	0
3	57483	25.9	0
3	57913	26	0
3	58342	26.1	0
3	58777	26.2	0
3	59199	26.3	0
3	59622	26.4	0
3	60045	26.5	0
3	60474	26.6	0
3	60896	26.7	0
3	61318	26.8	0
3	61737	26.9	0
3	62145	27	0
3	62568	27.1	0
3	63002	27.2	0
3	63414	27.3	0
3	63835	27.4	0
3	64259	27.5	0
3	64693	27.6	0
3	65128	27.7	0
3	65551	27.8	0
3	65963	27.9	0
3	66364	28	0
3	66789	28.1	0
3	67209	28.2	0
3	67621	28.3	0
3	68057	28.4	0
3	68457	28.5	0
3	68877	28.6	0
3	69295	28.7	0
3	69718	28.8	0
3	70136	28.9	0
3	70554	29	0
3	70965	29.1	0
3	71384	29.2	0
3	71795	29.3	0
3	72213	29.4	0
3	72634	29.5	0
3	73053	29.6	0
3	73465	29.7	0
3	73873	29.8	0
3	74289	29.9	0
3	74723	30	0
3	75145	30.1	0
3	75566	30.2	0
3	75999	30.3	0
3	76407	30.4	0
3	76826	30.5	0
3	77259	30.6	0
3	77677	30.7	0
3	78100	30.8	0
3	78533	30.9	0
3	78966	31	0
3	79380	31.1	0
3	79790	31.2	0
3	80211	31.3	0
3	80618	31.4	0
3	81052	31.5	0
3	81485	31.6	0
3	81906	31.7	0
3	82324	31.8	0
3	82741	31.9	0
3	83151	32	0
3	83573	32.1	0
3	83989	32.2	0
3	84422	32.3	0
3	84840	32.4	0
3	85260	32.5	0
3	85681	32.6	0
3	86101	32.7	0
3	86521	32.8	0
3	86927	32.9	0
3	87345	33	0
3	87767	33.1	0
3	88185	33.2	0
3	88604	33.3	0
3	89023	33.4	0
3	89441	33.5	0
3	89859	33.6	0
3	90276	33.7	0
3	90693	33.8	0
3	91100	33.9	0
3	91520	34	0
3	91926	34.1	0
3	92359	34.2	0
3	92769	34.3	0
3	93188	34.4	0
3	93609	34.5	0
3	94042	34.6	0
3	94460	34.7	0
3	94882	34.8	0
3	95314	34.9	0
3	95748	35	0
3	96154	35.1	0
3	96588	35.2	0
3	96994	35.3	0
3	97413	35.4	0
3	97824	35.5	0
3	98252	35.6	0
3	98672	35.7	0
3	99095	35.8	0
3	99516	35.9	0
3	99949	36	0
3	100372	36.1	0
3	100794	36.2	0
3	101222	36.3	0
3	101641	36.4	0
3	102059	36.5	0
3	102493	36.6	0
3	102927	36.7	0
3	103346	36.8	0
3	103758	36.9	0
3	104169	37	0
3	104587	37.1	0
3	105021	37.2	0
3	105456	37.3	0
3	105876	37.4	0
3	106285	37.5	0
3	106702	37.6	0
3	107114	37.7	0
3	107525	37.8	0
3	107948	37.9	0
3	108365	38	0
3	108784	38.1	0
3	109204	38.2	0
3	109638	38.3	0
3	110059	38.4	0
3	110494	38.5	0
3	110909	38.6	0
3	111343	38.7	0
3	111762	38.8	0
3	112197	38.9	0
3	112619	39	0
3	113038	39.1	0
3	113458	39.2	0
3	113893	39.3	0
3	114312	39.4	0
3	114732	39.5	0
3	115154	39.6	0
3	115560	39.7	0
3	115982	39.8	0
3	116411	39.9	0
3	116834	40	0
3	117242	40.1	0
3	117653	40.2	0
3	118074	40.3	0
3	118496	40.4	0
3	118913	40.5	0
3	119334	40.6	0
3	119756	40.7	0
3	120167	40.8	0
3	120601	40.9	0
3	121024	41	0
3	121443	41.1	0
3	121851	41.2	0
3	122273	41.3	0
3	122684	41.4	0
3	123107	41.5	0
3	123518	41.6	0
3	123937	41.7	0
3	124354	41.8	0
3	124772	41.9	0
3	125206	42	0
3	125640	42.1	0
3	126047	42.2	0
3	126465	42.3	0
3	126884	42.4	0
3	127318	42.5	0
3	127737	42.6	0
3	128166	42.7	0
3	128615	42.8	0
3	129033	42.9	0
3	129453	43	0
3	129871	43.1	0
3	130294	43.2	0
3	130713	43.3	0
3	131141	43.4	0
3	131564	43.5	0
3	131987	43.6	0
3	132421	43.7	0
3	132843	43.8	0
3	133266	43.9	0
3	133684	44	0
3	134118	44.1	0
3	134536	44.2	0
3	134955	44.3	0
3	135374	44.4	0
3	135794	44.5	0
3	136228	44.6	0
3	136655	44.7	0
3	137075	44.8	0
3	137496	44.9	0
3	137914	45	0
3	138314	45.1	0
3	138733	45.2	0
3	139144	45.3	0
3	139567	45.4	0
3	139981	45.5	0
3	140400	45.6	0
3	140807	45.7	0
3	141213	45.8	0
3	141635	45.9	0
3	142054	46	0
3	142474	46.1	0
3	142892	46.2	0
3	143324	46.3	0
3	143735	46.4	0
3	144157	46.5	0
3	144591	46.6	0
3	145024	46.7	0
3	145431	46.8	0
3	145853	46.9	0
3	146259	47	0
3	146686	47.1	0
3	147112	47.2	0
3	147519	47.3	0
3	147925	47.4	0
3	148346	47.5	0
3	148779	47.6	0
3	149198	47.7	0
3	149632	47.8	0
3	150042	47.9	0
3	150463	48	0
3	150884	48.1	0
3	151291	48.2	0
3	151708	48.3	0
3	152129	48.4	0
3	152550	48.5	0
3	152971	48.6	0
3	153405	48.7	0
3	153826	48.8	0
3	154247	48.9	0
3	154668	49	0
3	155073	49.1	0
3	155483	49.2	0
3	155904	49.3	0
3	156337	49.4	0
3	156764	49.5	0
3	157198	49.6	0
3	157620	49.7	0
3	158030	49.8	0
3	158448	49.9	0
3	158858	50	0
3	159263	50.1	0
3	159673	50.2	0
3	160083	50.3	0
3	160510	50.4	0
3	160928	50.5	0
3	161349	50.6	0
3	161782	50.7	0
3	162214	50.8	0
3	162632	50.9	0
3	163053	51	0
3	163466	51.1	0
3	163882	51.2	0
3	164303	51.3	0
3	164713	51.4	0
3	165123	51.5	0
3	165544	51.6	0
3	165976	51.7	0
3	166381	51.8	0
3	166798	51.9	0
3	167231	52	0
3	167652	52.1	0
3	168069	52.2	0
3	168503	52.3	0
3	168936	52.4	0
3	169357	52.5	0
3	169778	52.6	0
3	170196	52.7	0
3	170615	52.8	0
3	171032	52.9	0
3	171439	53	0
3	171858	53.1	0
3	172279	53.2	0
3	172713	53.3	0
3	173131	53.4	0
3	173538	53.5	0
3	173952	53.6	0
3	174367	53.7	0
3	174788	53.8	0
3	175209	53.9	0
3	175616	54	0
3	176050	54.1	0
3	176469	54.2	0
3	176882	54.3	0
3	177299	54.4	0
3	177720	54.5	0
3	178147	54.6	0
3	178581	54.7	0
3	178999	54.8	0
3	179434	54.9	0
3	179855	55	0
3	180271	55.1	0
3	180678	55.2	0
3	181098	55.3	0
3	181508	55.4	0
3	181924	55.5	0
3	182345	55.6	0
3	182755	55.7	0
3	183174	55.8	0
3	183594	55.9	0
3	184022	56	0
3	184443	56.1	0
3	184861	56.2	0
3	185293	56.3	0
3	185714	56.4	0
3	186131	56.5	0
3	186564	56.6	0
3	186985	56.7	0
3	187419	56.8	0
3	187852	56.9	0
3	188273	57	0
3	188701	57.1	0
3	189117	57.2	0
3	189538	57.3	0
3	189944	57.4	0
3	190354	57.5	0
3	190789	57.6	0
3	191207	57.7	0
3	191641	57.8	0
3	192051	57.9	0
3	192472	58	0
3	192905	58.1	0
3	193325	58.2	0
3	193751	58.3	0
3	194169	58.4	0
3	194590	58.5	0
3	194996	58.6	0
3	195428	58.7	0
3	195855	58.8	0
3	196288	58.9	0
3	196710	59	0
3	197116	59.1	0
3	197537	59.2	0
3	197955	59.3	0
3	198372	59.4	0
3	198798	59.5	0
3	199216	59.6	0
3	199643	59.7	0
3	200065	59.8	0
3	200498	59.9	0
3	200916	60	0
3	201349	60.1	0
3	201783	60.2	0
3	202193	60.3	0
3	202614	60.4	0
3	203031	60.5	0
3	203464	60.6	0
3	203898	60.7	0
3	204303	60.8	0
3	204723	60.9	0
3	205143	61	0
3	205560	61.1	0
3	205981	61.2	0
3	206391	61.3	0
3	206813	61.4	0
3	207230	61.5	0
3	207644	61.6	0
3	208062	61.7	0
3	208484	61.8	0
3	208901	61.9	0
3	209307	62	0
3	209717	62.1	0
3	210137	62.2	0
3	210556	62.3	0
3	210962	62.4	0
3	211410	62.5	0
3	211831	62.6	0
3	212264	62.7	0
3	212698	62.8	0
3	213117	62.9	0
3	213522	63	0
3	213956	63.1	0
3	214377	63.2	0
3	214795	63.3	0
3	215229	63.4	0
3	215651	63.5	0
3	216072	63.6	0
3	216506	63.7	0
3	216924	63.8	0
3	217330	63.9	0
3	217748	64	0
3	218170	64.1	0
3	218580	64.2	0
3	219001	64.3	0
3	219408	64.4	0
3	219827	64.5	0
3	220248	64.6	0
3	220667	64.7	0
3	221087	64.8	0
3	221493	64.9	0
3	221914	65	0
3	222347	65.1	0
3	222768	65.2	0
3	223186	65.3	0
3	223592	65.4	0
3	224026	65.5	0
3	224436	65.6	0
3	224858	65.7	0
3	225293	65.8	0
3	225711	65.9	0
3	226132	66	0
3	226549	66.1	0
3	226958	66.2	0
3	227391	66.3	0
3	227820	66.4	0
3	228241	66.5	0
3	228663	66.6	0
3	229082	66.7	0
3	229502	66.8	0
3	229921	66.9	0
3	230343	67	0
3	230764	67.1	0
3	231185	67.2	0
3	231606	67.3	0
3	232016	67.4	0
3	232437	67.5	0
3	232873	67.6	0
3	233279	67.7	0
3	233712	67.8	0
3	234130	67.9	0
3	234565	68	0
3	235000	68.1	0
3	235422	68.2	0
3	235840	68.3	0
3	236265	68.4	0
3	236682	68.5	0
3	237092	68.6	0
3	237498	68.7	0
3	237897	68.8	0
3	238313	68.9	0
3	238734	69	0
3	239142	69.1	0
3	239562	69.2	0
3	239992	69.3	0
3	240413	69.4	0
3	240848	69.5	0
3	241270	69.6	0
3	241692	69.7	0
3	242126	69.8	0
3	242559	69.9	0
3	242980	70	0
3	243402	70.1	0
3	243818	70.2	0
3	244236	70.3	0
3	244654	70.4	0
3	245073	70.5	0
3	245485	70.6	0
3	245919	70.7	0
3	246339	70.8	0
3	246774	70.9	0
3	247193	71	0
3	247610	71.1	0
3	248032	71.2	0
3	248443	71.3	0
3	248876	71.4	0
3	249310	71.5	0
3	249718	71.6	0
3	250140	71.7	0
3	250562	71.8	0
3	250984	71.9	0
3	251405	72	0
3	251822	72.1	0
3	252233	72.2	0
3	252643	72.3	0
3	253052	72.4	0
3	253474	72.5	0
3	253893	72.6	0
3	254308	72.7	0
3	254727	72.8	0
3	255144	72.9	0
3	255566	73	0
3	255984	73.1	0
3	256390	73.2	0
3	256812	73.3	0
3	257222	73.4	0
3	257646	73.5	0
3	258070	73.6	0
3	258491	73.7	0
3	258902	73.8	0
3	259308	73.9	0
3	259726	74	0
3	260148	74.1	0
3	260566	74.2	0
3	260972	74.3	0
3	261392	74.4	0
3	261811	74.5	0
3	262233	74.6	0
3	262654	74.7	0
3	263070	74.8	0
3	263503	74.9	0
3	263909	75	0
3	264343	75.1	0
3	264778	75.2	0
3	265199	75.3	0
3	265618	75.4	0
3	266037	75.5	0
3	266448	75.6	0
3	266856	75.7	0
3	267275	75.8	0
3	267686	75.9	0
3	268096	76	0
3	268512	76.1	0
3	268930	76.2	0
3	269339	76.3	0
3	269745	76.4	0
3	270163	76.5	0
3	270585	76.6	0
3	270993	76.7	0
3	271399	76.8	0
3	271810	76.9	0
3	272216	77	0
3	272623	77.1	0
3	273042	77.2	0
3	273464	77.3	0
3	273900	77.4	0
3	274333	77.5	0
3	274750	77.6	0
3	275172	77.7	0
3	275605	77.8	0
3	276013	77.9	0
3	276435	78	0
3	276854	78.1	0
3	277272	78.2	0
3	277694	78.3	0
3	278117	78.4	0
3	278538	78.5	0
3	278960	78.6	0
3	279377	78.7	0
3	279799	78.8	0
3	280206	78.9	0
3	280622	79	0
3	281042	79.1	0
3	281465	79.2	0
3	281961	79.3	0
3	282453	79.4	0
3	282922	79.5	0
3	283357	79.6	0
3	283824	79.7	0
3	284246	79.8	0
3	284733	79.9	0
3	285226	80	0
3	285710	80.1	0
3	286195	80.2	0
3	286681	80.3	0
3	287172	80.4	0
3	287627	80.5	0
3	288062	80.6	0
3	288548	80.7	0
3	289050	80.8	0
3	289522	80.9	0
3	289991	81	0
3	290462	81.1	0
3	290896	81.2	0
3	291343	81.3	0
3	291774	81.4	0
3	292191	81.5	0
3	292668	81.6	0
3	293151	81.7	0
3	293605	81.8	0
3	294015	81.9	0
3	294476	82	0
3	294973	82.1	0
3	295442	82.2	0
3	295862	82.3	0
3	296317	82.4	0
3	296737	82.5	0
3	297148	82.6	0
3	297597	82.7	0
3	298015	82.8	0
3	298510	82.9	0
3	299002	83	0
3	299459	83.1	0
3	299894	83.2	0
3	300349	83.3	0
3	300768	83.4	0
3	301250	83.5	0
3	301661	83.6	0
3	302128	83.7	0
3	302528	83.8	0
3	302979	83.9	0
3	303397	84	0
3	303881	84.1	0
3	304287	84.2	0
3	304770	84.3	0
3	305240	84.4	0
3	305713	84.5	0
3	306206	84.6	0
3	306666	84.7	0
3	307100	84.8	0
3	307588	84.9	0
3	308067	85	0
3	308537	85.1	0
3	308959	85.2	0
3	309446	85.3	0
3	309936	85.4	0
3	310406	85.5	0
3	310813	85.6	0
3	311284	85.7	0
3	311706	85.8	0
3	312183	85.9	0
3	312663	86	0
3	313135	86.1	0
3	313626	86.2	0
3	314095	86.3	0
3	314518	86.4	0
3	314978	86.5	0
3	315400	86.6	0
3	315868	86.7	0
3	316291	86.8	0
3	316747	86.9	0
3	317154	87	0
3	317624	87.1	0
3	318055	87.2	0
3	318473	87.3	0
3	318960	87.4	0
3	319457	87.5	0
3	319928	87.6	0
3	320347	87.7	0
3	320862	87.8	0
3	321353	87.9	0
3	321821	88	0
3	322242	88.1	0
3	322713	88.2	0
3	323133	88.3	0
3	323621	88.4	0
3	324113	88.5	0
3	324600	88.6	0
3	325109	88.7	0
3	325580	88.8	0
3	325998	88.9	0
3	326480	89	0
3	326900	89.1	0
3	327386	89.2	0
3	327876	89.3	0
3	328344	89.4	0
3	328766	89.5	0
3	329234	89.6	0
3	329657	89.7	0
3	330143	89.8	0
3	330635	89.9	0
3	331101	90	0
3	331593	90.1	0
3	332050	90.2	0
3	332468	90.3	0
3	332953	90.4	0
3	333445	90.5	0
3	333901	90.6	0
3	334334	90.7	0
3	334802	90.8	0
3	335226	90.9	0
3	335697	91	0
3	336155	91.1	0
3	336653	91.2	0
3	337135	91.3	0
3	337627	91.4	0
3	338107	91.5	0
3	338589	91.6	0
3	339033	91.7	0
3	339463	91.8	0
3	339946	91.9	0
3	340353	92	0
3	340842	92.1	0
3	341366	92.2	0
3	341854	92.3	0
3	342388	92.4	0
3	342876	92.5	0
3	343340	92.6	0
3	343808	92.7	0
3	344230	92.8	0
3	344696	92.9	0
3	345104	93	0
3	345572	93.1	0
3	345981	93.2	0
3	346439	93.3	0
3	346850	93.4	0
3	347321	93.5	0
3	347756	93.6	0
3	348227	93.7	0
3	348634	93.8	0
3	349101	93.9	0
3	349561	94	0
3	350030	94.1	0
3	350447	94.2	0
3	350917	94.3	0
3	351351	94.4	0
3	351794	94.5	0
3	352212	94.6	0
3	352685	94.7	0
3	353206	94.8	0
3	353678	94.9	0
3	354173	95	0
3	354650	95.1	0
3	355131	95.2	0
3	355601	95.3	0
3	356023	95.4	0
3	356509	95.5	0
3	356994	95.6	0
3	357460	95.7	0
3	357882	95.8	0
3	358378	95.9	0
3	358869	96	0
3	359338	96.1	0
3	359759	96.2	0
3	360229	96.3	0
3	360639	96.4	0
3	361123	96.5	0
3	361604	96.6	0
3	362064	96.7	0
3	362502	96.8	0
3	362994	96.9	0
3	363480	97	0
3	363963	97.1	0
3	364445	97.2	0
3	364866	97.3	0
3	365335	97.4	0
3	365757	97.5	0
3	366242	97.6	0
3	366737	97.7	0
3	367234	97.8	0
3	367719	97.9	0
3	368190	98	0
3	368608	98.1	0
3	369097	98.2	0
3	369644	98.3	0
3	370103	98.4	0
3	370549	98.5	0
3	370971	98.6	0
3	371441	98.7	0
3	371848	98.8	0
3	372335	98.9	0
3	372831	99	0
3	373306	99.1	0
3	373803	99.2	0
3	374280	99.3	0
3	374764	99.4	0
3	375250	99.5	0
3	375757	99.6	0
3	376228	99.7	0
3	376648	99.8	0
3	377115	99.9	0
3	377537	100	0
3	378034	100.1	0
3	378542	100.2	0
3	379013	100.3	0
3	379422	100.4	0
3	379879	100.5	0
3	380302	100.6	0
3	380773	100.7	0
3	381180	100.8	0
3	381635	100.9	0
3	382056	101	0
3	382544	101.1	0
3	383039	101.2	0
3	383527	101.3	0
3	383996	101.4	0
3	384454	101.5	0
3	384876	101.6	0
3	385350	101.7	0
3	385860	101.8	0
3	386335	101.9	0
3	386830	102	0
3	387299	102.1	0
3	387708	102.2	0
3	388179	102.3	0
3	388666	102.4	0
3	389134	102.5	0
3	389542	102.6	0
3	390011	102.7	0
3	390433	102.8	0
3	390921	102.9	0
3	391413	103	0
3	391896	103.1	0
3	392394	103.2	0
3	392894	103.3	0
3	393390	103.4	0
3	393861	103.5	0
3	394277	103.6	0
3	394759	103.7	0
3	395255	103.8	0
3	395728	103.9	0
3	396163	104	0
3	396599	104.1	0
3	397017	104.2	0
3	397438	104.3	0
3	397938	104.4	0
3	398423	104.5	0
3	398909	104.6	0
3	399404	104.7	0
3	399879	104.8	0
3	400375	104.9	0
3	400862	105	0
3	401357	105.1	0
3	401824	105.2	0
3	402233	105.3	0
3	402723	105.4	0
3	403218	105.5	0
3	403673	105.6	0
3	404095	105.7	0
3	404551	105.8	0
3	404969	105.9	0
3	405439	106	0
3	405855	106.1	0
3	406318	106.2	0
3	406729	106.3	0
3	407214	106.4	0
3	407722	106.5	0
3	408192	106.6	0
3	408615	106.7	0
3	409100	106.8	0
3	409582	106.9	0
3	410069	107	0
3	410545	107.1	0
3	411046	107.2	0
3	411543	107.3	0
3	412003	107.4	0
3	412422	107.5	0
3	412893	107.6	0
3	413312	107.7	0
3	413785	107.8	0
3	414279	107.9	0
3	414756	108	0
3	415251	108.1	0
3	415719	108.2	0
3	416138	108.3	0
3	416623	108.4	0
3	417105	108.5	0
3	417595	108.6	0
3	418064	108.7	0
3	418523	108.8	0
3	418934	108.9	0
3	419405	109	0
3	419827	109.1	0
3	420282	109.2	0
3	420694	109.3	0
3	421134	109.4	0
3	421572	109.5	0
3	422079	109.6	0
3	422536	109.7	0
3	422968	109.8	0
3	423428	109.9	0
3	423859	110	0
3	424345	110.1	0
3	424828	110.2	0
3	425282	110.3	0
3	425688	110.4	0
3	426153	110.5	0
3	426575	110.6	0
3	427046	110.7	0
3	427495	110.8	0
3	427982	110.9	0
3	428478	111	0
3	428956	111.1	0
3	429392	111.2	0
3	429865	111.3	0
3	430348	111.4	0
3	430817	111.5	0
3	431239	111.6	0
3	431697	111.7	0
3	432127	111.8	0
3	432604	111.9	0
3	433101	112	0
3	433562	112.1	0
3	434056	112.2	0
3	434511	112.3	0
3	434958	112.4	0
3	435380	112.5	0
3	435861	112.6	0
3	436342	112.7	0
3	436830	112.8	0
3	437327	112.9	0
3	437797	113	0
3	438232	113.1	0
3	438701	113.2	0
3	439121	113.3	0
3	439618	113.4	0
3	440128	113.5	0
3	440615	113.6	0
[...]
20	872876	213.1	466.3907802871
20	873221	213.2	466.3907802871
20	873552	213.3	466.3907802871
20	873907	213.4	466.3907802871
20	874241	213.5	466.3907802871
20	874596	213.6	466.3907802871
20	874936	213.7	466.3907802871
20	875270	213.8	466.3907802871
20	875612	213.9	466.3907802871
20	875958	214	466.3907802871
20	876255	214.1	469.92325432604
20	876611	214.2	469.92325432604
20	876920	214.3	469.92325432604
20	877245	214.4	469.92325432604
20	877565	214.5	469.92325432604
20	877921	214.6	469.92325432604
20	878263	214.7	469.92325432604
20	878593	214.8	469.92325432604
20	878918	214.9	469.92325432604
20	879249	215	469.92325432604
20	879594	215.1	473.45572836497
20	879937	215.2	473.45572836497
20	880293	215.3	473.45572836497
20	880627	215.4	473.45572836497
20	880982	215.5	473.45572836497
20	881324	215.6	473.45572836497
20	881656	215.7	473.45572836497
20	881957	215.8	473.45572836497
20	882293	215.9	473.45572836497
20	882591	216	473.45572836497
20	882949	216.1	476.8882024039
20	883211	216.2	476.8882024039
20	883456	216.3	476.8882024039
20	883702	216.4	476.8882024039
20	883934	216.5	476.8882024039
20	884154	216.6	476.8882024039
20	884397	216.7	476.8882024039
20	884615	216.8	476.8882024039
20	884848	216.9	476.8882024039
20	885085	217	476.8882024039
20	885311	217.1	480.41943704932
20	885556	217.2	480.41943704932
20	885802	217.3	480.41943704932
20	886030	217.4	480.41943704932
20	886268	217.5	480.41943704932
20	886513	217.6	480.41943704932
20	886747	217.7	480.41943704932
20	886967	217.8	480.41943704932
20	887210	217.9	480.41943704932
20	887420	218	480.41943704932
20	887638	218.1	483.75966820191
20	887876	218.2	483.75966820191
20	888105	218.3	483.75966820191
20	888351	218.4	483.75966820191
20	888585	218.5	483.75966820191
20	888831	218.6	483.75966820191
20	889076	218.7	483.75966820191
20	889312	218.8	483.75966820191
20	889541	218.9	483.75966820191
20	889787	219	483.75966820191
20	890023	219.1	485.63901546204
20	890259	219.2	485.63901546204
20	890497	219.3	485.63901546204
20	890733	219.4	485.63901546204
20	890978	219.5	485.63901546204
20	891214	219.6	485.63901546204
20	891460	219.7	485.63901546204
20	891686	219.8	485.63901546204
20	891912	219.9	485.63901546204
20	892149	220	485.63901546204
20	892393	220.1	485.9
20	892631	220.2	485.9
20	892877	220.3	485.9
20	893106	220.4	485.9
20	893342	220.5	485.9
20	893588	220.6	485.9
20	893817	220.7	485.9
20	894046	220.8	485.9
20	894281	220.9	485.9
20	894510	221	485.9
20	894737	221.1	485.9
20	894958	221.2	485.9
20	895196	221.3	485.9
20	895431	221.4	485.9
20	895676	221.5	485.9
20	895914	221.6	485.9
20	896160	221.7	485.9
20	896386	221.8	485.9
20	896612	221.9	485.9
20	896838	222	485.9
20	897064	222.1	485.9
20	897299	222.2	485.9
20	897510	222.3	485.9
20	897748	222.4	485.9
20	897984	222.5	485.9
20	898209	222.6	485.9
20	898447	222.7	485.9
20	898673	222.8	485.9
20	898907	222.9	485.9
20	899127	223	485.9
20	899362	223.1	486.12422347681
20	899608	223.2	486.12422347681
20	899854	223.3	486.12422347681
20	900099	223.4	486.12422347681
20	900334	223.5	486.12422347681
20	900572	223.6	486.12422347681
20	900818	223.7	486.12422347681
20	901055	223.8	486.12422347681
20	901291	223.9	486.12422347681
20	901526	224	486.12422347681
20	901762	224.1	487.08223233135
20	901988	224.2	487.08223233135
20	902221	224.3	487.08223233135
20	902441	224.4	487.08223233135
20	902676	224.5	487.08223233135
20	902902	224.6	487.08223233135
20	903138	224.7	487.08223233135
20	903375	224.8	487.08223233135
20	903620	224.9	487.08223233135
20	903854	225	487.08223233135
20	904075	225.1	489.43343261952
20	904311	225.2	489.43343261952
20	904546	225.3	489.43343261952
20	904789	225.4	489.43343261952
20	905000	225.5	489.43343261952
20	905211	225.6	489.43343261952
20	905446	225.7	489.43343261952
20	905657	225.8	489.43343261952
20	905900	225.9	489.43343261952
20	906146	226	489.43343261952
20	906383	226.1	492.71256119259
20	906524	226.2	492.71256119259
20	906653	226.3	492.71256119259
20	906782	226.4	492.71256119259
20	906911	226.5	492.71256119259
20	907040	226.6	492.71256119259
20	907169	226.7	492.71256119259
20	907298	226.8	492.71256119259
20	907427	226.9	492.71256119259
20	907547	227	492.71256119259
20	907657	227.1	496.22541683217
20	907786	227.2	496.22541683217
20	907907	227.3	496.22541683217
20	908035	227.4	496.22541683217
20	908164	227.5	496.22541683217
20	908291	227.6	496.22541683217
20	908418	227.7	496.22541683217
20	908547	227.8	496.22541683217
20	908676	227.9	496.22541683217
20	908805	228	496.22541683217
20	908932	228.1	499.75789087111
20	909042	228.2	499.75789087111
20	909166	228.3	499.75789087111
20	909276	228.4	499.75789087111
20	909405	228.5	499.75789087111
20	909527	228.6	499.75789087111
20	909656	228.7	499.75789087111
20	909785	228.8	499.75789087111
20	909914	228.9	499.75789087111
20	910043	229	499.75789087111
20	910165	229.1	503.19036491004
20	910294	229.2	503.19036491004
20	910423	229.3	503.19036491004
20	910545	229.4	503.19036491004
20	910674	229.5	503.19036491004
20	910803	229.6	503.19036491004
20	910930	229.7	503.19036491004
20	911040	229.8	503.19036491004
20	911162	229.9	503.19036491004
20	911291	230	503.19036491004
20	911413	230.1	506.72283894897
20	911542	230.2	506.72283894897
20	911671	230.3	506.72283894897
20	911798	230.4	506.72283894897
20	911908	230.5	506.72283894897
20	912030	230.6	506.72283894897
20	912158	230.7	506.72283894897
20	912287	230.8	506.72283894897
20	912416	230.9	506.72283894897
20	912545	231	506.72283894897
20	912674	231.1	510.25531298791
20	912801	231.2	510.25531298791
20	912911	231.3	510.25531298791
20	913033	231.4	510.25531298791
20	913155	231.5	510.25531298791
20	913284	231.6	510.25531298791
20	913413	231.7	510.25531298791
20	913542	231.8	510.25531298791
20	913671	231.9	510.25531298791
20	913800	232	510.25531298791
20	913929	232.1	513.78778702684
20	914058	232.2	513.78778702684
20	914187	232.3	513.78778702684
20	914309	232.4	513.78778702684
20	914438	232.5	513.78778702684
20	914567	232.6	513.78778702684
20	914695	232.7	513.78778702684
20	914824	232.8	513.78778702684
20	914952	232.9	513.78778702684
20	915078	233	513.78778702684
20	915188	233.1	517.32026106577
20	915310	233.2	517.32026106577
20	915439	233.3	517.32026106577
20	915568	233.4	517.32026106577
20	915696	233.5	517.32026106577
20	915818	233.6	517.32026106577
20	915946	233.7	517.32026106577
20	916074	233.8	517.32026106577
20	916203	233.9	517.32026106577
20	916332	234	517.32026106577
20	916454	234.1	520.85273510471
20	916583	234.2	520.85273510471
20	916712	234.3	520.85273510471
20	916841	234.4	520.85273510471
20	916969	234.5	520.85273510471
20	917098	234.6	520.85273510471
20	917220	234.7	520.85273510471
20	917349	234.8	520.85273510471
20	917471	234.9	520.85273510471
20	917600	235	520.85273510471
20	917729	235.1	524.38520914364
20	917858	235.2	524.38520914364
20	917987	235.3	524.38520914364
20	918116	235.4	524.38520914364
20	918245	235.5	524.38520914364
20	918367	235.6	524.38520914364
20	918489	235.7	524.38520914364
20	918615	235.8	524.38520914364
20	918723	235.9	524.38520914364
20	918833	236	524.38520914364
20	918962	236.1	527.81768318257
20	919091	236.2	527.81768318257
20	919220	236.3	527.81768318257
20	919348	236.4	527.81768318257
20	919476	236.5	527.81768318257
20	919598	236.6	527.81768318257
20	919727	236.7	527.81768318257
20	919849	236.8	527.81768318257
20	919975	236.9	527.81768318257
20	920084	237	527.81768318257
20	920212	237.1	531.35015722151
20	920269	237.2	531.35015722151
20	920317	237.3	531.35015722151
20	920365	237.4	531.35015722151
20	920413	237.5	531.35015722151
20	920461	237.6	531.35015722151
20	920509	237.7	531.35015722151
20	920557	237.8	531.35015722151
20	920605	237.9	531.35015722151
20	920653	238	531.35015722151
20	920701	238.1	534.88263126044
20	920749	238.2	534.88263126044
20	920797	238.3	534.88263126044
20	920845	238.4	534.88263126044
20	920893	238.5	534.88263126044
20	920941	238.6	534.88263126044
20	920989	238.7	534.88263126044
20	921037	238.8	534.88263126044
20	921085	238.9	534.88263126044
20	921133	239	534.88263126044
20	921181	239.1	538.41510529937
20	921229	239.2	538.41510529937
20	921277	239.3	538.41510529937
20	921325	239.4	538.41510529937
20	921373	239.5	538.41510529937
20	921421	239.6	538.41510529937
20	921469	239.7	538.41510529937
20	921517	239.8	538.41510529937
20	921565	239.9	538.41510529937
20	921613	240	538.41510529937
20	921661	240.1	541.94757933831
20	921709	240.2	541.94757933831
20	921757	240.3	541.94757933831
20	921805	240.4	541.94757933831
20	921853	240.5	541.94757933831
20	921901	240.6	541.94757933831
20	921949	240.7	541.94757933831
20	921997	240.8	541.94757933831
20	922045	240.9	541.94757933831
20	922093	241	541.94757933831
20	922141	241.1	545.48005337724
20	922189	241.2	545.48005337724
20	922237	241.3	545.48005337724
20	922285	241.4	545.48005337724
20	922333	241.5	545.48005337724
20	922381	241.6	545.48005337724
20	922429	241.7	545.48005337724
20	922477	241.8	545.48005337724
20	922525	241.9	545.48005337724
20	922573	242	545.48005337724
20	922621	242.1	549.01252741617
20	922669	242.2	549.01252741617
20	922717	242.3	549.01252741617
20	922765	242.4	549.01252741617
20	922813	242.5	549.01252741617
20	922861	242.6	549.01252741617
20	922909	242.7	549.01252741617
20	922957	242.8	549.01252741617
20	923005	242.9	549.01252741617
20	923053	243	549.01252741617
20	923101	243.1	552.44500145511
20	923149	243.2	552.44500145511
20	923197	243.3	552.44500145511
20	923245	243.4	552.44500145511
20	923293	243.5	552.44500145511
20	923341	243.6	552.44500145511
20	923389	243.7	552.44500145511
20	923437	243.8	552.44500145511
20	923485	243.9	552.44500145511
20	923533	244	552.44500145511
20	923581	244.1	555.97747549404
20	923629	244.2	555.97747549404
20	923677	244.3	555.97747549404
20	923725	244.4	555.97747549404
20	923773	244.5	555.97747549404
20	923821	244.6	555.97747549404
20	923869	244.7	555.97747549404
20	923917	244.8	555.97747549404
20	923965	244.9	555.97747549404
20	924013	245	555.97747549404
20	924061	245.1	559.50994953297
20	924109	245.2	559.50994953297
20	924157	245.3	559.50994953297
20	924205	245.4	559.50994953297
20	924253	245.5	559.50994953297
20	924301	245.6	559.50994953297
20	924349	245.7	559.50994953297
20	924397	245.8	559.50994953297
20	924445	245.9	559.50994953297
20	924493	246	559.50994953297
20	924541	246.1	562.94242357191
20	924589	246.2	562.94242357191
20	924637	246.3	562.94242357191
20	924685	246.4	562.94242357191
20	924733	246.5	562.94242357191
20	924781	246.6	562.94242357191
20	924829	246.7	562.94242357191
20	924877	246.8	562.94242357191
20	924925	246.9	562.94242357191
20	924973	247	562.94242357191
20	925021	247.1	566.47489761084
20	925069	247.2	566.47489761084
20	925117	247.3	566.47489761084
20	925165	247.4	566.47489761084
20	925213	247.5	566.47489761084
20	925261	247.6	566.47489761084
20	925309	247.7	566.47489761084
20	925357	247.8	566.47489761084
20	925405	247.9	566.47489761084
20	925453	248	566.47489761084
20	925501	248.1	570.00737164978
20	925549	248.2	570.00737164978
20	925597	248.3	570.00737164978
20	925645	248.4	570.00737164978
20	925693	248.5	570.00737164978
20	925741	248.6	570.00737164978
20	925789	248.7	570.00737164978
20	925837	248.8	570.00737164978
20	925885	248.9	570.00737164978
20	925933	249	570.00737164978
20	925981	249.1	573.53984568871
20	926029	249.2	573.53984568871
20	926077	249.3	573.53984568871
20	926125	249.4	573.53984568871
20	926173	249.5	573.53984568871
20	926221	249.6	573.53984568871
20	926269	249.7	573.53984568871
20	926317	249.8	573.53984568871
20	926365	249.9	573.53984568871
20	926413	250	573.53984568871
20	926461	250.1	577.07231972764
20	926509	250.2	577.07231972764
20	926557	250.3	577.07231972764
20	926605	250.4	577.07231972764
20	926653	250.5	577.07231972764
20	926701	250.6	577.07231972764
20	926749	250.7	577.07231972764
20	926797	250.8	577.07231972764
20	926845	250.9	577.07231972764
20	926893	251	577.07231972764
20	926941	251.1	580.60479376658
20	926989	251.2	580.60479376658
20	927037	251.3	580.60479376658
20	927085	251.4	580.60479376658
20	927133	251.5	580.60479376658
20	927181	251.6	580.60479376658
20	927229	251.7	580.60479376658
20	927277	251.8	580.60479376658
20	927325	251.9	580.60479376658
20	927373	252	580.60479376658
20	927421	252.1	584.13726780551
20	927469	252.2	584.13726780551
20	927517	252.3	584.13726780551
20	927550	252.4	584.13726780551
20	927598	252.5	584.13726780551
20	927646	252.6	584.13726780551
20	927694	252.7	584.13726780551
20	927742	252.8	584.13726780551
20	927790	252.9	584.13726780551
20	927838	253	584.13726780551
20	927886	253.1	587.56974184444
20	927934	253.2	587.56974184444
20	927982	253.3	587.56974184444
20	928030	253.4	587.56974184444
20	928078	253.5	587.56974184444
20	928126	253.6	587.56974184444
20	928174	253.7	587.56974184444
20	928222	253.8	587.56974184444
20	928270	253.9	587.56974184444
20	928318	254	587.56974184444
20	928366	254.1	591.10221588338
20	928414	254.2	591.10221588338
20	928462	254.3	591.10221588338
20	928510	254.4	591.10221588338
20	928558	254.5	591.10221588338
20	928606	254.6	591.10221588338
20	928654	254.7	591.10221588338
20	928702	254.8	591.10221588338
20	928750	254.9	591.10221588338
20	928798	255	591.10221588338
20	928846	255.1	594.61653472342
20	928893	255.2	594.61653472342
20	928941	255.3	594.61653472342
20	928989	255.4	594.61653472342
20	929037	255.5	594.61653472342
20	929085	255.6	594.61653472342
20	929133	255.7	594.61653472342
20	929181	255.8	594.61653472342
20	929229	255.9	594.61653472342
20	929277	256	594.61653472342
20	929325	256.1	597.43850338514
20	929372	256.2	597.43850338514
20	929404	256.3	597.43850338514
20	929452	256.4	597.43850338514
20	929500	256.5	597.43850338514
20	929533	256.6	597.43850338514
20	929581	256.7	597.43850338514
20	929614	256.8	597.43850338514
20	929647	256.9	597.43850338514
20	929695	257	597.43850338514
20	929743	257.1	598.38156114273
20	929790	257.2	598.38156114273
20	929823	257.3	598.38156114273
20	929871	257.4	598.38156114273
20	929918	257.5	598.38156114273
20	929966	257.6	598.38156114273
20	930014	257.7	598.38156114273
20	930062	257.8	598.38156114273
20	930095	257.9	598.38156114273
20	930143	258	598.38156114273
20	930191	258.1	598.4
20	930224	258.2	598.4
20	930272	258.3	598.4
20	930320	258.4	598.4
20	930368	258.5	598.4
20	930416	258.6	598.4
20	930464	258.7	598.4
20	930512	258.8	598.4
20	930560	258.9	598.4
20	930608	259	598.4
20	930656	259.1	598.4
20	930704	259.2	598.4
20	930752	259.3	598.4
20	930800	259.4	598.4
20	930848	259.5	598.4
20	930896	259.6	598.4
20	930944	259.7	598.4
20	930992	259.8	598.4
20	931040	259.9	598.4
20	931088	260	598.4
20	931136	260.1	598.4
20	931184	260.2	598.4
20	931232	260.3	598.4
20	931280	260.4	598.4
20	931328	260.5	598.4
20	931376	260.6	598.4
20	931424	260.7	598.4
20	931472	260.8	598.4
20	931520	260.9	598.4
20	931568	261	598.4
20	931616	261.1	598.4
20	931664	261.2	598.4
20	931712	261.3	598.4
20	931760	261.4	598.4
20	931808	261.5	598.4
20	931856	261.6	598.4
20	931889	261.7	598.4
20	931937	261.8	598.4
20	931985	261.9	598.4
20	932033	262	598.4
20	932081	262.1	598.4
20	932129	262.2	598.4
20	932177	262.3	598.4
20	932225	262.4	598.4
20	932258	262.5	598.4
20	932306	262.6	598.4
20	932354	262.7	598.4
20	932402	262.8	598.4
20	932450	262.9	598.4
20	932498	263	598.4
20	932546	263.1	598.4
20	932594	263.2	598.4
20	932642	263.3	598.4
20	932690	263.4	598.4
20	932738	263.5	598.4
20	932786	263.6	598.4
20	932834	263.7	598.4
20	932882	263.8	598.4
20	932930	263.9	598.4
20	932978	264	598.4
20	933026	264.1	598.4
20	933074	264.2	598.4
20	933122	264.3	598.4
20	933170	264.4	598.4
20	933218	264.5	598.4
20	933266	264.6	598.4
20	933314	264.7	598.4
20	933362	264.8	598.4
20	933410	264.9	598.4
20	933458	265	598.4
20	933506	265.1	598.4
20	933554	265.2	598.4
20	933602	265.3	598.4
20	933650	265.4	598.4
20	933683	265.5	598.4
20	933731	265.6	598.4
20	933779	265.7	598.4
20	933827	265.8	598.4
20	933875	265.9	598.4
20	933923	266	598.4
20	933971	266.1	598.4
20	934018	266.2	598.4
20	934066	266.3	598.4
20	934114	266.4	598.4
20	934162	266.5	598.4
20	934209	266.6	598.4
20	934257	266.7	598.4
20	934305	266.8	598.4
20	934353	266.9	598.4
20	934401	267	598.4
20	934449	267.1	598.4
20	934497	267.2	598.4
20	934545	267.3	598.4
20	934593	267.4	598.4
20	934640	267.5	598.4
20	934688	267.6	598.4
20	934736	267.7	598.4
20	934784	267.8	598.4
20	934832	267.9	598.4
20	934880	268	598.4
20	934928	268.1	598.79977194202
20	934975	268.2	598.79977194202
20	935023	268.3	598.79977194202
20	935071	268.4	598.79977194202
20	935119	268.5	598.79977194202
20	935167	268.6	598.79977194202
20	935215	268.7	598.79977194202
20	935263	268.8	598.79977194202
20	935311	268.9	598.79977194202
20	935359	269	598.79977194202
20	935407	269.1	600.22094818369
20	935455	269.2	600.22094818369
20	935503	269.3	600.22094818369
20	935551	269.4	600.22094818369
20	935599	269.5	600.22094818369
20	935647	269.6	600.22094818369
20	935680	269.7	600.22094818369
20	935728	269.8	600.22094818369
20	935776	269.9	600.22094818369
20	935823	270	600.22094818369
20	935856	270.1	602.99816236406
20	935904	270.2	602.99816236406
20	935952	270.3	602.99816236406
20	935985	270.4	602.99816236406
20	936018	270.5	602.99816236406
20	936066	270.6	602.99816236406
20	936113	270.7	602.99816236406
20	936160	270.8	602.99816236406
20	936193	270.9	602.99816236406
20	936226	271	602.99816236406
20	936258	271.1	606.44175928844
20	936306	271.2	606.44175928844
20	936354	271.3	606.44175928844
20	936402	271.4	606.44175928844
20	936450	271.5	606.44175928844
20	936498	271.6	606.44175928844
20	936546	271.7	606.44175928844
20	936594	271.8	606.44175928844
20	936642	271.9	606.44175928844
20	936690	272	606.44175928844
20	936738	272.1	609.96674858418
20	936786	272.2	609.96674858418
20	936834	272.3	609.96674858418
20	936882	272.4	609.96674858418
20	936930	272.5	609.96674858418
20	936963	272.6	609.96674858418
20	937011	272.7	609.96674858418
20	937059	272.8	609.96674858418
20	937107	272.9	609.96674858418
20	937155	273	609.96674858418
20	937202	273.1	613.39922262311
20	937250	273.2	613.39922262311
20	937298	273.3	613.39922262311
20	937346	273.4	613.39922262311
20	937394	273.5	613.39922262311
20	937442	273.6	613.39922262311
20	937489	273.7	613.39922262311
20	937537	273.8	613.39922262311
20	937585	273.9	613.39922262311
20	937633	274	613.39922262311
20	937681	274.1	616.93169666205
20	937729	274.2	616.93169666205
20	937777	274.3	616.93169666205
20	937825	274.4	616.93169666205
20	937873	274.5	616.93169666205
20	937921	274.6	616.93169666205
20	937969	274.7	616.93169666205
20	938017	274.8	616.93169666205
20	938065	274.9	616.93169666205
20	938113	275	616.93169666205
20	938161	275.1	620.46417070098
20	938209	275.2	620.46417070098
20	938256	275.3	620.46417070098
20	938304	275.4	620.46417070098
20	938352	275.5	620.46417070098
20	938400	275.6	620.46417070098
20	938448	275.7	620.46417070098
20	938496	275.8	620.46417070098
20	938544	275.9	620.46417070098
20	938592	276	620.46417070098
20	938640	276.1	623.99664473991
20	938688	276.2	623.99664473991
20	938721	276.3	623.99664473991
20	938769	276.4	623.99664473991
20	938817	276.5	623.99664473991
20	938865	276.6	623.99664473991
20	938913	276.7	623.99664473991
20	938946	276.8	623.99664473991
20	938994	276.9	623.99664473991
20	939042	277	623.99664473991
20	939075	277.1	627.42911877885
20	939123	277.2	627.42911877885
20	939171	277.3	627.42911877885
20	939219	277.4	627.42911877885
20	939267	277.5	627.42911877885
20	939315	277.6	627.42911877885
20	939363	277.7	627.42911877885
20	939411	277.8	627.42911877885
20	939459	277.9	627.42911877885
20	939507	278	627.42911877885
20	939555	278.1	630.96159281778
20	939603	278.2	630.96159281778
20	939650	278.3	630.96159281778
20	939698	278.4	630.96159281778
20	939746	278.5	630.96159281778
20	939778	278.6	630.96159281778
20	939826	278.7	630.96159281778
20	939874	278.8	630.96159281778
20	939922	278.9	630.96159281778
20	939970	279	630.96159281778
20	940017	279.1	634.49406685671
20	940050	279.2	634.49406685671
20	940083	279.3	634.49406685671
20	940130	279.4	634.49406685671
20	940177	279.5	634.49406685671
20	940225	279.6	634.49406685671
20	940273	279.7	634.49406685671
20	940320	279.8	634.49406685671
20	940368	279.9	634.49406685671
20	940416	280	634.49406685671

